
     RDKit          3D

 54 57  0  0  0  0  0  0  0  0999 V2000
    5.5366   -4.3276   -1.0310 C   0  0  0  0  0  0  0  0  0  0  0  0
    5.3112   -3.0231   -1.1852 C   0  0  0  0  0  0  0  0  0  0  0  0
    4.5405   -2.2301   -0.2086 C   0  0  0  0  0  0  0  0  0  0  0  0
    4.0642   -2.7808    0.8253 O   0  0  0  0  0  0  0  0  0  0  0  0
    4.3401   -0.8254   -0.4344 N   0  0  0  0  0  0  0  0  0  0  0  0
    3.4786   -0.0178    0.4369 C   0  0  1  0  0  0  0  0  0  0  0  0
    3.5571    1.4800    0.1110 C   0  0  0  0  0  0  0  0  0  0  0  0
    2.1587    2.0244    0.3766 C   0  0  0  0  0  0  0  0  0  0  0  0
    1.2831    0.8669    0.3462 N   0  0  0  0  0  0  0  0  0  0  0  0
   -0.1487    0.9565    0.3348 C   0  0  0  0  0  0  0  0  0  0  0  0
   -0.9056   -0.1792    0.1833 N   0  0  0  0  0  0  0  0  0  0  0  0
   -2.2710   -0.1375    0.1352 C   0  0  0  0  0  0  0  0  0  0  0  0
   -3.0538   -1.3326   -0.0144 N   0  0  0  0  0  0  0  0  0  0  0  0
   -2.5206   -2.6102   -0.3958 C   0  0  0  0  0  0  0  0  0  0  0  0
   -1.3046   -2.8933   -0.9999 C   0  0  0  0  0  0  0  0  0  0  0  0
   -1.2370   -4.2203   -1.2285 N   0  0  0  0  0  0  0  0  0  0  0  0
   -2.3729   -4.7623   -0.8077 N   0  0  0  0  0  0  0  0  0  0  0  0
   -2.6475   -6.1927   -0.8330 C   0  0  0  0  0  0  0  0  0  0  0  0
   -3.1787   -3.8157   -0.2909 C   0  0  0  0  0  0  0  0  0  0  0  0
   -2.8735    1.1091    0.2690 C   0  0  0  0  0  0  0  0  0  0  0  0
   -4.1797    1.4321    0.2529 N   0  0  0  0  0  0  0  0  0  0  0  0
   -4.1577    2.7851    0.4069 C   0  0  0  0  0  0  0  0  0  0  0  0
   -2.9040    3.2973    0.5125 N   0  0  0  0  0  0  0  0  0  0  0  0
   -2.5375    4.7077    0.6910 C   0  0  0  0  0  0  0  0  0  0  0  0
   -1.6684    5.1941   -0.4729 C   0  0  0  0  0  0  0  0  0  0  0  0
   -1.8343    4.9150    2.0358 C   0  0  0  0  0  0  0  0  0  0  0  0
   -2.1138    2.2174    0.4235 C   0  0  0  0  0  0  0  0  0  0  0  0
   -0.7604    2.1745    0.4559 N   0  0  0  0  0  0  0  0  0  0  0  0
    2.0058   -0.3898    0.2668 C   0  0  0  0  0  0  0  0  0  0  0  0
    5.1603   -4.8735   -0.1710 H   0  0  0  0  0  0  0  0  0  0  0  0
    6.1034   -4.8679   -1.7778 H   0  0  0  0  0  0  0  0  0  0  0  0
    5.7063   -2.5271   -2.0641 H   0  0  0  0  0  0  0  0  0  0  0  0
    4.8426   -0.3749   -1.2322 H   0  0  0  0  0  0  0  0  0  0  0  0
    3.7784   -0.1618    1.5002 H   0  0  0  0  0  0  0  0  0  0  0  0
    3.8034    1.6414   -0.9624 H   0  0  0  0  0  0  0  0  0  0  0  0
    4.3178    1.9922    0.7404 H   0  0  0  0  0  0  0  0  0  0  0  0
    2.1060    2.5038    1.3780 H   0  0  0  0  0  0  0  0  0  0  0  0
    1.8682    2.7548   -0.4100 H   0  0  0  0  0  0  0  0  0  0  0  0
   -4.0777   -1.2825    0.1909 H   0  0  0  0  0  0  0  0  0  0  0  0
   -0.5273   -2.1960   -1.2819 H   0  0  0  0  0  0  0  0  0  0  0  0
   -2.3359   -6.6467    0.1310 H   0  0  0  0  0  0  0  0  0  0  0  0
   -2.0846   -6.6730   -1.6611 H   0  0  0  0  0  0  0  0  0  0  0  0
   -3.7327   -6.3718   -0.9895 H   0  0  0  0  0  0  0  0  0  0  0  0
   -4.1629   -3.9905    0.1293 H   0  0  0  0  0  0  0  0  0  0  0  0
   -5.0548    3.3891    0.4385 H   0  0  0  0  0  0  0  0  0  0  0  0
   -3.4641    5.3243    0.6973 H   0  0  0  0  0  0  0  0  0  0  0  0
   -0.6845    4.6805   -0.4790 H   0  0  0  0  0  0  0  0  0  0  0  0
   -2.1826    4.9953   -1.4365 H   0  0  0  0  0  0  0  0  0  0  0  0
   -1.4956    6.2881   -0.3871 H   0  0  0  0  0  0  0  0  0  0  0  0
   -0.8692    4.3668    2.0690 H   0  0  0  0  0  0  0  0  0  0  0  0
   -1.6361    5.9959    2.2000 H   0  0  0  0  0  0  0  0  0  0  0  0
   -2.4825    4.5481    2.8602 H   0  0  0  0  0  0  0  0  0  0  0  0
    1.8170   -0.8607   -0.7229 H   0  0  0  0  0  0  0  0  0  0  0  0
    1.6808   -1.0755    1.0793 H   0  0  0  0  0  0  0  0  0  0  0  0
  1  2  2  0
  2  3  1  0
  3  4  2  0
  3  5  1  0
  5  6  1  0
  6  7  1  0
  7  8  1  0
  8  9  1  0
  9 10  1  0
 10 11  2  0
 11 12  1  0
 12 13  1  0
 13 14  1  0
 14 15  1  0
 15 16  2  0
 16 17  1  0
 17 18  1  0
 17 19  1  0
 12 20  2  0
 20 21  1  0
 21 22  2  0
 22 23  1  0
 23 24  1  0
 24 25  1  0
 24 26  1  0
 23 27  1  0
 27 28  2  0
  9 29  1  0
 29  6  1  0
 28 10  1  0
 19 14  2  0
 27 20  1  0
  1 30  1  0
  1 31  1  0
  2 32  1  0
  5 33  1  0
  6 34  1  1
  7 35  1  0
  7 36  1  0
  8 37  1  0
  8 38  1  0
 13 39  1  0
 15 40  1  0
 18 41  1  0
 18 42  1  0
 18 43  1  0
 19 44  1  0
 22 45  1  0
 24 46  1  0
 25 47  1  0
 25 48  1  0
 25 49  1  0
 26 50  1  0
 26 51  1  0
 26 52  1  0
 29 53  1  0
 29 54  1  0
M  END
