
     RDKit          3D

 80 82  0  0  0  0  0  0  0  0999 V2000
  -12.6347    1.1254   -3.0385 C   0  0  0  0  0  0  0  0  0  0  0  0
  -12.6842    1.1158   -1.5109 C   0  0  0  0  0  0  0  0  0  0  0  0
  -12.1099   -0.1732   -0.8958 C   0  0  0  0  0  0  0  0  0  0  0  0
  -10.6306   -0.4483   -1.2235 C   0  0  0  0  0  0  0  0  0  0  0  0
   -9.6842    0.6285   -0.6664 C   0  0  0  0  0  0  0  0  0  0  0  0
   -8.2043    0.3018   -0.9258 C   0  0  0  0  0  0  0  0  0  0  0  0
   -7.6593   -0.7757    0.0243 C   0  0  0  0  0  0  0  0  0  0  0  0
   -6.1591   -0.9986   -0.2047 C   0  0  0  0  0  0  0  0  0  0  0  0
   -5.6063   -2.0607    0.7573 C   0  0  0  0  0  0  0  0  0  0  0  0
   -4.1358   -2.4075    0.4740 C   0  0  0  0  0  0  0  0  0  0  0  0
   -3.1746   -1.2733    0.8608 C   0  0  0  0  0  0  0  0  0  0  0  0
   -1.7138   -1.7098    0.6958 C   0  0  0  0  0  0  0  0  0  0  0  0
   -0.7548   -0.5693    1.0703 C   0  0  0  0  0  0  0  0  0  0  0  0
    0.7179   -1.0087    1.0677 C   0  0  0  0  0  0  0  0  0  0  0  0
    1.2868   -1.1601   -0.3516 C   0  0  0  0  0  0  0  0  0  0  0  0
    2.7314   -1.6711   -0.3465 C   0  0  0  0  0  0  0  0  0  0  0  0
    3.7069   -0.6110    0.2547 O   0  0  0  0  0  0  0  0  0  0  0  0
    3.9611   -0.5573    1.6890 C   0  0  0  0  0  0  0  0  0  0  0  0
    4.1421   -0.1454    0.5177 O   0  0  0  0  0  0  0  0  0  0  0  0
    4.7276    0.3221    2.6276 C   0  0  0  0  0  0  0  0  0  0  0  0
    6.1329    0.0917    2.5144 O   0  0  0  0  0  0  0  0  0  0  0  0
    6.9996    0.6836    1.5795 C   0  0  0  0  0  0  0  0  0  0  0  0
    6.5880    1.6790    0.6735 C   0  0  0  0  0  0  0  0  0  0  0  0
    7.4934    2.2352   -0.2424 C   0  0  0  0  0  0  0  0  0  0  0  0
    7.0508    3.2151   -1.1324 O   0  0  0  0  0  0  0  0  0  0  0  0
    8.8383    1.7999   -0.2534 C   0  0  0  0  0  0  0  0  0  0  0  0
    9.8081    2.3089   -1.1414 C   0  0  0  0  0  0  0  0  0  0  0  0
    9.5200    3.1918   -1.9944 O   0  0  0  0  0  0  0  0  0  0  0  0
   11.1175    1.8292   -1.0790 C   0  0  0  0  0  0  0  0  0  0  0  0
   11.4456    0.8477   -0.1333 C   0  0  0  0  0  0  0  0  0  0  0  0
   12.8164    0.3133   -0.0247 C   0  0  0  0  0  0  0  0  0  0  0  0
   13.2354   -0.6412    0.8964 C   0  0  0  0  0  0  0  0  0  0  0  0
   14.5930   -0.9656    0.7830 C   0  0  0  0  0  0  0  0  0  0  0  0
   15.2508   -0.2731   -0.2247 C   0  0  0  0  0  0  0  0  0  0  0  0
   14.1415    0.7442   -0.9737 S   0  0  0  0  0  0  0  0  0  0  0  0
   10.5085    0.3840    0.6890 O   0  0  0  0  0  0  0  0  0  0  0  0
    9.2486    0.8080    0.6677 C   0  0  0  0  0  0  0  0  0  0  0  0
    8.3316    0.2617    1.5686 C   0  0  0  0  0  0  0  0  0  0  0  0
  -13.2099    1.9947   -3.4211 H   0  0  0  0  0  0  0  0  0  0  0  0
  -11.5884    1.2239   -3.3948 H   0  0  0  0  0  0  0  0  0  0  0  0
  -13.0829    0.1956   -3.4491 H   0  0  0  0  0  0  0  0  0  0  0  0
  -13.7478    1.2008   -1.1985 H   0  0  0  0  0  0  0  0  0  0  0  0
  -12.1591    2.0089   -1.1122 H   0  0  0  0  0  0  0  0  0  0  0  0
  -12.7155   -1.0364   -1.2487 H   0  0  0  0  0  0  0  0  0  0  0  0
  -12.2316   -0.1234    0.2083 H   0  0  0  0  0  0  0  0  0  0  0  0
  -10.4927   -0.5462   -2.3208 H   0  0  0  0  0  0  0  0  0  0  0  0
  -10.3731   -1.4304   -0.7753 H   0  0  0  0  0  0  0  0  0  0  0  0
   -9.9027    1.5943   -1.1688 H   0  0  0  0  0  0  0  0  0  0  0  0
   -9.8586    0.7660    0.4234 H   0  0  0  0  0  0  0  0  0  0  0  0
   -8.0669   -0.0176   -1.9825 H   0  0  0  0  0  0  0  0  0  0  0  0
   -7.6171    1.2349   -0.7790 H   0  0  0  0  0  0  0  0  0  0  0  0
   -8.1946   -1.7336   -0.1445 H   0  0  0  0  0  0  0  0  0  0  0  0
   -7.8252   -0.4577    1.0772 H   0  0  0  0  0  0  0  0  0  0  0  0
   -5.9947   -1.3282   -1.2542 H   0  0  0  0  0  0  0  0  0  0  0  0
   -5.6253   -0.0376   -0.0462 H   0  0  0  0  0  0  0  0  0  0  0  0
   -6.2050   -2.9915    0.6461 H   0  0  0  0  0  0  0  0  0  0  0  0
   -5.7161   -1.7144    1.8085 H   0  0  0  0  0  0  0  0  0  0  0  0
   -4.0091   -2.6618   -0.6012 H   0  0  0  0  0  0  0  0  0  0  0  0
   -3.8783   -3.3128    1.0663 H   0  0  0  0  0  0  0  0  0  0  0  0
   -3.3590   -0.3888    0.2145 H   0  0  0  0  0  0  0  0  0  0  0  0
   -3.3535   -0.9840    1.9199 H   0  0  0  0  0  0  0  0  0  0  0  0
   -1.5460   -2.0113   -0.3602 H   0  0  0  0  0  0  0  0  0  0  0  0
   -1.5184   -2.5875    1.3508 H   0  0  0  0  0  0  0  0  0  0  0  0
   -1.0041   -0.2169    2.0955 H   0  0  0  0  0  0  0  0  0  0  0  0
   -0.8952    0.2891    0.3766 H   0  0  0  0  0  0  0  0  0  0  0  0
    1.2976   -0.2289    1.6035 H   0  0  0  0  0  0  0  0  0  0  0  0
    0.8295   -1.9612    1.6302 H   0  0  0  0  0  0  0  0  0  0  0  0
    1.2502   -0.1813   -0.8770 H   0  0  0  0  0  0  0  0  0  0  0  0
    0.6739   -1.8846   -0.9270 H   0  0  0  0  0  0  0  0  0  0  0  0
    2.8085   -2.6268    0.2172 H   0  0  0  0  0  0  0  0  0  0  0  0
    3.0357   -1.8709   -1.3959 H   0  0  0  0  0  0  0  0  0  0  0  0
    4.4690    1.3949    2.5041 H   0  0  0  0  0  0  0  0  0  0  0  0
    4.4223    0.0400    3.6553 H   0  0  0  0  0  0  0  0  0  0  0  0
    5.5686    2.0349    0.6670 H   0  0  0  0  0  0  0  0  0  0  0  0
    6.0901    3.5374   -1.1364 H   0  0  0  0  0  0  0  0  0  0  0  0
   11.8639    2.2212   -1.7593 H   0  0  0  0  0  0  0  0  0  0  0  0
   12.5823   -1.0915    1.6328 H   0  0  0  0  0  0  0  0  0  0  0  0
   15.0837   -1.6874    1.4217 H   0  0  0  0  0  0  0  0  0  0  0  0
   16.2967   -0.3726   -0.4816 H   0  0  0  0  0  0  0  0  0  0  0  0
    8.6565   -0.4996    2.2675 H   0  0  0  0  0  0  0  0  0  0  0  0
  1  2  1  0
  2  3  1  0
  3  4  1  0
  4  5  1  0
  5  6  1  0
  6  7  1  0
  7  8  1  0
  8  9  1  0
  9 10  1  0
 10 11  1  0
 11 12  1  0
 12 13  1  0
 13 14  1  0
 14 15  1  0
 15 16  1  0
 16 17  1  0
 17 18  1  0
 18 19  2  0
 18 20  1  0
 20 21  1  0
 21 22  1  0
 22 23  2  0
 23 24  1  0
 24 25  1  0
 24 26  2  0
 26 27  1  0
 27 28  2  0
 27 29  1  0
 29 30  2  0
 30 31  1  0
 31 32  2  0
 32 33  1  0
 33 34  2  0
 34 35  1  0
 30 36  1  0
 36 37  1  0
 37 38  2  0
 38 22  1  0
 37 26  1  0
 35 31  1  0
  1 39  1  0
  1 40  1  0
  1 41  1  0
  2 42  1  0
  2 43  1  0
  3 44  1  0
  3 45  1  0
  4 46  1  0
  4 47  1  0
  5 48  1  0
  5 49  1  0
  6 50  1  0
  6 51  1  0
  7 52  1  0
  7 53  1  0
  8 54  1  0
  8 55  1  0
  9 56  1  0
  9 57  1  0
 10 58  1  0
 10 59  1  0
 11 60  1  0
 11 61  1  0
 12 62  1  0
 12 63  1  0
 13 64  1  0
 13 65  1  0
 14 66  1  0
 14 67  1  0
 15 68  1  0
 15 69  1  0
 16 70  1  0
 16 71  1  0
 20 72  1  0
 20 73  1  0
 23 74  1  0
 25 75  1  0
 29 76  1  0
 32 77  1  0
 33 78  1  0
 34 79  1  0
 38 80  1  0
M  END
