
     RDKit          3D

 64 67  0  0  0  0  0  0  0  0999 V2000
    3.9780    3.1618   -1.7823 C   0  0  0  0  0  0  0  0  0  0  0  0
    4.5438    1.9760   -1.9803 C   0  0  0  0  0  0  0  0  0  0  0  0
    3.7435    0.7777   -2.2949 C   0  0  0  0  0  0  0  0  0  0  0  0
    4.3345   -0.2380   -2.7506 O   0  0  0  0  0  0  0  0  0  0  0  0
    2.3117    0.7474   -2.1318 N   0  0  0  0  0  0  0  0  0  0  0  0
    1.6814    1.2835   -0.9445 C   0  0  0  0  0  0  0  0  0  0  0  0
    0.4167    1.8949   -1.0148 C   0  0  0  0  0  0  0  0  0  0  0  0
   -0.1965    2.3839    0.1400 C   0  0  0  0  0  0  0  0  0  0  0  0
    0.4459    2.2813    1.3748 C   0  0  0  0  0  0  0  0  0  0  0  0
    1.7162    1.6882    1.4672 C   0  0  0  0  0  0  0  0  0  0  0  0
    2.4163    1.5400    2.7944 C   0  0  0  0  0  0  0  0  0  0  0  0
    3.7653    1.8205    2.6522 F   0  0  0  0  0  0  0  0  0  0  0  0
    1.8901    2.4036    3.7411 F   0  0  0  0  0  0  0  0  0  0  0  0
    2.2757    0.2396    3.2414 F   0  0  0  0  0  0  0  0  0  0  0  0
    2.3137    1.1693    0.3075 C   0  0  0  0  0  0  0  0  0  0  0  0
    1.5269    0.2396   -3.2280 C   0  0  0  0  0  0  0  0  0  0  0  0
    1.7045    0.7860   -4.4618 N   0  0  0  0  0  0  0  0  0  0  0  0
    0.9889    0.3702   -5.5360 C   0  0  0  0  0  0  0  0  0  0  0  0
    0.0669   -0.6144   -5.3993 N   0  0  0  0  0  0  0  0  0  0  0  0
   -0.1500   -1.2088   -4.1979 C   0  0  0  0  0  0  0  0  0  0  0  0
   -1.0958   -2.2310   -4.0944 C   0  0  0  0  0  0  0  0  0  0  0  0
   -1.3208   -2.8721   -2.8630 C   0  0  0  0  0  0  0  0  0  0  0  0
   -2.2667   -3.9004   -2.7213 O   0  0  0  0  0  0  0  0  0  0  0  0
   -3.0808   -4.3996   -3.7771 C   0  0  0  0  0  0  0  0  0  0  0  0
   -0.5859   -2.4850   -1.7324 C   0  0  0  0  0  0  0  0  0  0  0  0
   -0.8465   -3.1466   -0.5206 O   0  0  0  0  0  0  0  0  0  0  0  0
   -0.4120   -2.7291    0.7743 C   0  0  0  0  0  0  0  0  0  0  0  0
   -1.1510   -1.4573    1.2100 C   0  0  0  0  0  0  0  0  0  0  0  0
   -1.0133   -1.2246    2.7227 C   0  0  0  0  0  0  0  0  0  0  0  0
   -1.4818    0.1217    3.1215 N   0  0  0  0  0  0  0  0  0  0  0  0
   -1.0957    0.3785    4.5238 C   0  0  0  0  0  0  0  0  0  0  0  0
   -1.6390    1.7362    4.9855 C   0  0  0  0  0  0  0  0  0  0  0  0
   -3.0466    1.7774    4.8655 O   0  0  0  0  0  0  0  0  0  0  0  0
   -3.4101    1.6132    3.5097 C   0  0  0  0  0  0  0  0  0  0  0  0
   -2.9484    0.2489    2.9837 C   0  0  0  0  0  0  0  0  0  0  0  0
    0.3821   -1.4680   -1.8412 C   0  0  0  0  0  0  0  0  0  0  0  0
    0.5879   -0.8050   -3.0648 C   0  0  0  0  0  0  0  0  0  0  0  0
    4.5814    4.0354   -1.5859 H   0  0  0  0  0  0  0  0  0  0  0  0
    4.5896    4.0357   -1.5864 H   0  0  0  0  0  0  0  0  0  0  0  0
    5.6244    1.8937   -1.9640 H   0  0  0  0  0  0  0  0  0  0  0  0
   -0.0965    1.9927   -1.9637 H   0  0  0  0  0  0  0  0  0  0  0  0
   -1.1741    2.8440    0.0786 H   0  0  0  0  0  0  0  0  0  0  0  0
   -0.0528    2.6652    2.2541 H   0  0  0  0  0  0  0  0  0  0  0  0
    3.2704    0.6668    0.3817 H   0  0  0  0  0  0  0  0  0  0  0  0
    1.1526    0.8265   -6.5024 H   0  0  0  0  0  0  0  0  0  0  0  0
   -1.6505   -2.5208   -4.9771 H   0  0  0  0  0  0  0  0  0  0  0  0
   -3.7298   -3.5905   -4.1748 H   0  0  0  0  0  0  0  0  0  0  0  0
   -2.4447   -4.8142   -4.5878 H   0  0  0  0  0  0  0  0  0  0  0  0
   -3.7263   -5.2110   -3.3825 H   0  0  0  0  0  0  0  0  0  0  0  0
   -0.6478   -3.5495    1.4856 H   0  0  0  0  0  0  0  0  0  0  0  0
    0.6888   -2.5813    0.7952 H   0  0  0  0  0  0  0  0  0  0  0  0
   -0.7470   -0.5820    0.6591 H   0  0  0  0  0  0  0  0  0  0  0  0
   -2.2238   -1.5747    0.9485 H   0  0  0  0  0  0  0  0  0  0  0  0
    0.0650   -1.3294    2.9807 H   0  0  0  0  0  0  0  0  0  0  0  0
   -1.5674   -2.0171    3.2753 H   0  0  0  0  0  0  0  0  0  0  0  0
    0.0114    0.3964    4.6161 H   0  0  0  0  0  0  0  0  0  0  0  0
   -1.4901   -0.4192    5.1946 H   0  0  0  0  0  0  0  0  0  0  0  0
   -1.3739    1.8811    6.0543 H   0  0  0  0  0  0  0  0  0  0  0  0
   -1.1665    2.5665    4.4139 H   0  0  0  0  0  0  0  0  0  0  0  0
   -2.9914    2.4331    2.8822 H   0  0  0  0  0  0  0  0  0  0  0  0
   -4.5170    1.6695    3.4327 H   0  0  0  0  0  0  0  0  0  0  0  0
   -3.4735   -0.5589    3.5426 H   0  0  0  0  0  0  0  0  0  0  0  0
   -3.2409    0.1952    1.9140 H   0  0  0  0  0  0  0  0  0  0  0  0
    0.9816   -1.2128   -0.9833 H   0  0  0  0  0  0  0  0  0  0  0  0
  1  2  2  0
  2  3  1  0
  3  4  2  0
  3  5  1  0
  5  6  1  0
  6  7  2  0
  7  8  1  0
  8  9  2  0
  9 10  1  0
 10 11  1  0
 11 12  1  0
 11 13  1  0
 11 14  1  0
 10 15  2  0
  5 16  1  0
 16 17  2  0
 17 18  1  0
 18 19  2  0
 19 20  1  0
 20 21  2  0
 21 22  1  0
 22 23  1  0
 23 24  1  0
 22 25  2  0
 25 26  1  0
 26 27  1  0
 27 28  1  0
 28 29  1  0
 29 30  1  0
 30 31  1  0
 31 32  1  0
 32 33  1  0
 33 34  1  0
 34 35  1  0
 25 36  1  0
 36 37  2  0
 15  6  1  0
 37 16  1  0
 37 20  1  0
 35 30  1  0
  1 38  1  0
  1 39  1  0
  2 40  1  0
  7 41  1  0
  8 42  1  0
  9 43  1  0
 15 44  1  0
 18 45  1  0
 21 46  1  0
 24 47  1  0
 24 48  1  0
 24 49  1  0
 27 50  1  0
 27 51  1  0
 28 52  1  0
 28 53  1  0
 29 54  1  0
 29 55  1  0
 31 56  1  0
 31 57  1  0
 32 58  1  0
 32 59  1  0
 34 60  1  0
 34 61  1  0
 35 62  1  0
 35 63  1  0
 36 64  1  0
M  END
