
     RDKit          3D

 62 66  0  0  0  0  0  0  0  0999 V2000
    2.9937    2.4571   -1.6235 C   0  0  0  0  0  0  0  0  0  0  0  0
    3.5567    2.6949   -0.4353 C   0  0  0  0  0  0  0  0  0  0  0  0
    4.0082    1.6467    0.5067 C   0  0  0  0  0  0  0  0  0  0  0  0
    4.4734    2.0051    1.6211 O   0  0  0  0  0  0  0  0  0  0  0  0
    3.9754    0.2502    0.1692 N   0  0  0  0  0  0  0  0  0  0  0  0
    4.8775   -0.3381   -0.8101 C   0  0  0  0  0  0  0  0  0  0  0  0
    4.4939   -1.8066   -0.8800 C   0  0  0  0  0  0  0  0  0  0  0  0
    3.7603   -2.0985    0.4224 C   0  0  0  0  0  0  0  0  0  0  0  0
    3.1888   -0.7523    0.8833 C   0  0  1  0  0  0  0  0  0  0  0  0
    3.2697   -0.5724    2.4163 C   0  0  0  0  0  0  0  0  0  0  0  0
    2.5114   -1.9424    3.3643 S   0  0  0  0  0  0  0  0  0  0  0  0
    0.8557   -1.6626    2.7460 C   0  0  0  0  0  0  0  0  0  0  0  0
    0.0676   -0.6498    3.1621 N   0  0  0  0  0  0  0  0  0  0  0  0
   -1.0201   -0.7353    2.3674 C   0  0  0  0  0  0  0  0  0  0  0  0
   -2.1721    0.1833    2.4891 C   0  0  0  0  0  0  0  0  0  0  0  0
   -3.4900   -0.2696    2.2784 C   0  0  0  0  0  0  0  0  0  0  0  0
   -4.5677    0.6084    2.4187 C   0  0  0  0  0  0  0  0  0  0  0  0
   -4.3464    1.9395    2.7921 C   0  0  0  0  0  0  0  0  0  0  0  0
   -5.3940    2.7917    2.9219 F   0  0  0  0  0  0  0  0  0  0  0  0
   -3.0423    2.3892    3.0286 C   0  0  0  0  0  0  0  0  0  0  0  0
   -1.9619    1.5153    2.8809 C   0  0  0  0  0  0  0  0  0  0  0  0
   -0.8662   -1.8040    1.4892 C   0  0  0  0  0  0  0  0  0  0  0  0
   -1.6822   -2.1391    0.3097 C   0  0  0  0  0  0  0  0  0  0  0  0
   -1.9191   -3.4746   -0.0239 C   0  0  0  0  0  0  0  0  0  0  0  0
   -2.6527   -3.7772   -1.1733 C   0  0  0  0  0  0  0  0  0  0  0  0
   -3.0990   -2.7815   -1.9818 N   0  0  0  0  0  0  0  0  0  0  0  0
   -2.8418   -1.4690   -1.7167 C   0  0  0  0  0  0  0  0  0  0  0  0
   -3.3129   -0.4595   -2.6227 N   0  0  0  0  0  0  0  0  0  0  0  0
   -2.6427    0.7948   -2.8317 C   0  0  0  0  0  0  0  0  0  0  0  0
   -3.3983    1.9507   -3.0751 C   0  0  0  0  0  0  0  0  0  0  0  0
   -2.7626    3.1799   -3.2756 C   0  0  0  0  0  0  0  0  0  0  0  0
   -1.3660    3.2594   -3.2544 C   0  0  0  0  0  0  0  0  0  0  0  0
   -0.6066    2.1092   -3.0511 C   0  0  0  0  0  0  0  0  0  0  0  0
   -1.2379    0.8800   -2.8362 C   0  0  0  0  0  0  0  0  0  0  0  0
   -2.1450   -1.1275   -0.5462 C   0  0  0  0  0  0  0  0  0  0  0  0
    0.3140   -2.3867    1.7510 N   0  0  0  0  0  0  0  0  0  0  0  0
    2.7967    1.4295   -1.9299 H   0  0  0  0  0  0  0  0  0  0  0  0
    2.8361    1.4842   -2.0508 H   0  0  0  0  0  0  0  0  0  0  0  0
    3.6951    3.7274   -0.1599 H   0  0  0  0  0  0  0  0  0  0  0  0
    4.7644    0.1342   -1.8090 H   0  0  0  0  0  0  0  0  0  0  0  0
    5.9354   -0.2231   -0.4705 H   0  0  0  0  0  0  0  0  0  0  0  0
    3.8070   -1.9776   -1.7372 H   0  0  0  0  0  0  0  0  0  0  0  0
    5.3913   -2.4526   -0.9879 H   0  0  0  0  0  0  0  0  0  0  0  0
    4.4943   -2.4896    1.1634 H   0  0  0  0  0  0  0  0  0  0  0  0
    2.9614   -2.8607    0.2779 H   0  0  0  0  0  0  0  0  0  0  0  0
    2.1340   -0.6571    0.5473 H   0  0  0  0  0  0  0  0  0  0  0  0
    2.7662    0.3761    2.7073 H   0  0  0  0  0  0  0  0  0  0  0  0
    4.3332   -0.5035    2.7236 H   0  0  0  0  0  0  0  0  0  0  0  0
   -3.6942   -1.2946    2.0028 H   0  0  0  0  0  0  0  0  0  0  0  0
   -5.5766    0.2620    2.2384 H   0  0  0  0  0  0  0  0  0  0  0  0
   -2.8709    3.4220    3.3131 H   0  0  0  0  0  0  0  0  0  0  0  0
   -0.9610    1.8791    3.0678 H   0  0  0  0  0  0  0  0  0  0  0  0
   -1.5493   -4.2765    0.6059 H   0  0  0  0  0  0  0  0  0  0  0  0
   -2.8483   -4.8079   -1.4217 H   0  0  0  0  0  0  0  0  0  0  0  0
   -4.1791   -0.6617   -3.1746 H   0  0  0  0  0  0  0  0  0  0  0  0
   -4.4792    1.9006   -3.0973 H   0  0  0  0  0  0  0  0  0  0  0  0
   -3.3516    4.0699   -3.4557 H   0  0  0  0  0  0  0  0  0  0  0  0
   -0.8735    4.2108   -3.4231 H   0  0  0  0  0  0  0  0  0  0  0  0
    0.4722    2.1733   -3.0620 H   0  0  0  0  0  0  0  0  0  0  0  0
   -0.6305   -0.0043   -2.6856 H   0  0  0  0  0  0  0  0  0  0  0  0
   -1.9470   -0.0894   -0.3128 H   0  0  0  0  0  0  0  0  0  0  0  0
    0.7550   -3.1793    1.2357 H   0  0  0  0  0  0  0  0  0  0  0  0
  1  2  2  0
  2  3  1  0
  3  4  2  0
  3  5  1  0
  5  6  1  0
  6  7  1  0
  7  8  1  0
  8  9  1  0
  9 10  1  0
 10 11  1  0
 11 12  1  0
 12 13  2  0
 13 14  1  0
 14 15  1  0
 15 16  2  0
 16 17  1  0
 17 18  2  0
 18 19  1  0
 18 20  1  0
 20 21  2  0
 14 22  2  0
 22 23  1  0
 23 24  2  0
 24 25  1  0
 25 26  2  0
 26 27  1  0
 27 28  1  0
 28 29  1  0
 29 30  2  0
 30 31  1  0
 31 32  2  0
 32 33  1  0
 33 34  2  0
 27 35  2  0
 22 36  1  0
  9  5  1  0
 36 12  1  0
 21 15  1  0
 35 23  1  0
 34 29  1  0
  1 37  1  0
  1 38  1  0
  2 39  1  0
  6 40  1  0
  6 41  1  0
  7 42  1  0
  7 43  1  0
  8 44  1  0
  8 45  1  0
  9 46  1  6
 10 47  1  0
 10 48  1  0
 16 49  1  0
 17 50  1  0
 20 51  1  0
 21 52  1  0
 24 53  1  0
 25 54  1  0
 28 55  1  0
 30 56  1  0
 31 57  1  0
 32 58  1  0
 33 59  1  0
 34 60  1  0
 35 61  1  0
 36 62  1  0
M  END
