
     RDKit          3D

 77 81  0  0  0  0  0  0  0  0999 V2000
   -1.9235   -6.5798   -3.4290 C   0  0  0  0  0  0  0  0  0  0  0  0
   -1.5656   -5.2446   -2.9505 C   0  0  0  0  0  0  0  0  0  0  0  0
   -1.2720   -4.1454   -2.5520 C   0  0  0  0  0  0  0  0  0  0  0  0
   -0.9232   -2.8374   -2.0697 C   0  0  0  0  0  0  0  0  0  0  0  0
   -0.1697   -2.1062   -2.7646 O   0  0  0  0  0  0  0  0  0  0  0  0
   -1.4876   -2.3576   -0.8378 N   0  0  0  0  0  0  0  0  0  0  0  0
   -0.9733   -1.2370   -0.0939 C   0  0  0  0  0  0  0  0  0  0  0  0
    0.4060   -0.9539   -0.0772 C   0  0  0  0  0  0  0  0  0  0  0  0
    0.9101    0.1122    0.6858 C   0  0  0  0  0  0  0  0  0  0  0  0
    2.2822    0.4359    0.6891 C   0  0  0  0  0  0  0  0  0  0  0  0
    3.1598   -0.2715   -0.1526 O   0  0  0  0  0  0  0  0  0  0  0  0
    4.5554   -0.3117   -0.0382 C   0  0  0  0  0  0  0  0  0  0  0  0
    5.1945   -0.4236    1.2077 C   0  0  0  0  0  0  0  0  0  0  0  0
    6.5908   -0.4322    1.2839 C   0  0  0  0  0  0  0  0  0  0  0  0
    7.3696   -0.3317    0.1169 C   0  0  0  0  0  0  0  0  0  0  0  0
    8.8478   -0.2882    0.2178 C   0  0  0  0  0  0  0  0  0  0  0  0
    9.4176   -0.9380    1.1386 O   0  0  0  0  0  0  0  0  0  0  0  0
    9.6314    0.4805   -0.7163 N   0  0  0  0  0  0  0  0  0  0  0  0
   11.0081    0.8460   -0.5227 C   0  0  0  0  0  0  0  0  0  0  0  0
   11.5495    1.0468    0.7587 C   0  0  0  0  0  0  0  0  0  0  0  0
   12.8820    1.4476    0.8860 C   0  0  0  0  0  0  0  0  0  0  0  0
   13.6582    1.6571   -0.2543 C   0  0  0  0  0  0  0  0  0  0  0  0
   13.0845    1.4736   -1.5115 C   0  0  0  0  0  0  0  0  0  0  0  0
   11.7866    1.0822   -1.6152 N   0  0  0  0  0  0  0  0  0  0  0  0
    6.7230   -0.2811   -1.1312 C   0  0  0  0  0  0  0  0  0  0  0  0
    5.3272   -0.2764   -1.2042 C   0  0  0  0  0  0  0  0  0  0  0  0
    2.7250    1.5108    1.4812 C   0  0  0  0  0  0  0  0  0  0  0  0
    1.8126    2.2184    2.2633 C   0  0  0  0  0  0  0  0  0  0  0  0
    0.4946    1.8955    2.2353 N   0  0  0  0  0  0  0  0  0  0  0  0
    0.0217    0.8787    1.4687 C   0  0  0  0  0  0  0  0  0  0  0  0
   -1.3478    0.6015    1.4541 C   0  0  0  0  0  0  0  0  0  0  0  0
   -1.8573   -0.4452    0.6648 C   0  0  0  0  0  0  0  0  0  0  0  0
   -3.2348   -0.7133    0.5938 O   0  0  0  0  0  0  0  0  0  0  0  0
   -4.2510    0.1516    1.1019 C   0  0  0  0  0  0  0  0  0  0  0  0
   -5.6237   -0.3671    0.6728 C   0  0  0  0  0  0  0  0  0  0  0  0
   -6.7252    0.6549    0.9984 C   0  0  0  0  0  0  0  0  0  0  0  0
   -8.0808    0.0890    0.8016 N   0  0  0  0  0  0  0  0  0  0  0  0
   -9.1021    0.8223    1.6007 C   0  0  0  0  0  0  0  0  0  0  0  0
  -10.3421    1.2466    0.7910 C   0  0  0  0  0  0  0  0  0  0  0  0
   -9.9734    1.9576   -0.4511 N   0  0  0  0  0  0  0  0  0  0  0  0
   -9.6218    3.3652   -0.1942 C   0  0  0  0  0  0  0  0  0  0  0  0
   -8.9238    1.2710   -1.2465 C   0  0  0  0  0  0  0  0  0  0  0  0
   -8.4518   -0.0578   -0.6254 C   0  0  0  0  0  0  0  0  0  0  0  0
   -2.8384   -6.9258   -2.9034 H   0  0  0  0  0  0  0  0  0  0  0  0
   -2.1122   -6.5457   -4.5216 H   0  0  0  0  0  0  0  0  0  0  0  0
   -1.0901   -7.2820   -3.2221 H   0  0  0  0  0  0  0  0  0  0  0  0
   -2.3266   -2.8560   -0.4638 H   0  0  0  0  0  0  0  0  0  0  0  0
    1.0866   -1.5813   -0.6366 H   0  0  0  0  0  0  0  0  0  0  0  0
    4.6134   -0.5066    2.1165 H   0  0  0  0  0  0  0  0  0  0  0  0
    7.0635   -0.4950    2.2582 H   0  0  0  0  0  0  0  0  0  0  0  0
    9.1984    0.7841   -1.6149 H   0  0  0  0  0  0  0  0  0  0  0  0
   10.9477    0.9282    1.6510 H   0  0  0  0  0  0  0  0  0  0  0  0
   13.3107    1.6040    1.8678 H   0  0  0  0  0  0  0  0  0  0  0  0
   14.6895    1.9713   -0.1641 H   0  0  0  0  0  0  0  0  0  0  0  0
   13.6694    1.6474   -2.4042 H   0  0  0  0  0  0  0  0  0  0  0  0
    7.2870   -0.2621   -2.0538 H   0  0  0  0  0  0  0  0  0  0  0  0
    4.8432   -0.2265   -2.1703 H   0  0  0  0  0  0  0  0  0  0  0  0
    3.7597    1.8257    1.4717 H   0  0  0  0  0  0  0  0  0  0  0  0
    2.1490    3.0427    2.8780 H   0  0  0  0  0  0  0  0  0  0  0  0
   -2.0086    1.2095    2.0572 H   0  0  0  0  0  0  0  0  0  0  0  0
   -4.1000    1.1770    0.6907 H   0  0  0  0  0  0  0  0  0  0  0  0
   -4.1930    0.1844    2.2133 H   0  0  0  0  0  0  0  0  0  0  0  0
   -5.8318   -1.3230    1.2009 H   0  0  0  0  0  0  0  0  0  0  0  0
   -5.5877   -0.5640   -0.4188 H   0  0  0  0  0  0  0  0  0  0  0  0
   -6.5913    0.9398    2.0677 H   0  0  0  0  0  0  0  0  0  0  0  0
   -6.5840    1.5740    0.3887 H   0  0  0  0  0  0  0  0  0  0  0  0
   -8.6885    1.7377    2.0803 H   0  0  0  0  0  0  0  0  0  0  0  0
   -9.4368    0.1607    2.4291 H   0  0  0  0  0  0  0  0  0  0  0  0
  -10.9357    0.3434    0.5267 H   0  0  0  0  0  0  0  0  0  0  0  0
  -11.0083    1.8739    1.4249 H   0  0  0  0  0  0  0  0  0  0  0  0
   -8.6844    3.4447    0.3977 H   0  0  0  0  0  0  0  0  0  0  0  0
  -10.4427    3.8792    0.3476 H   0  0  0  0  0  0  0  0  0  0  0  0
   -9.4847    3.8973   -1.1591 H   0  0  0  0  0  0  0  0  0  0  0  0
   -8.0335    1.9192   -1.4174 H   0  0  0  0  0  0  0  0  0  0  0  0
   -9.3389    1.0557   -2.2537 H   0  0  0  0  0  0  0  0  0  0  0  0
   -9.2681   -0.8076   -0.7068 H   0  0  0  0  0  0  0  0  0  0  0  0
   -7.6203   -0.4695   -1.2301 H   0  0  0  0  0  0  0  0  0  0  0  0
  1  2  1  0
  2  3  3  0
  3  4  1  0
  4  5  2  0
  4  6  1  0
  6  7  1  0
  7  8  2  0
  8  9  1  0
  9 10  2  0
 10 11  1  0
 11 12  1  0
 12 13  2  0
 13 14  1  0
 14 15  2  0
 15 16  1  0
 16 17  2  0
 16 18  1  0
 18 19  1  0
 19 20  2  0
 20 21  1  0
 21 22  2  0
 22 23  1  0
 23 24  2  0
 15 25  1  0
 25 26  2  0
 10 27  1  0
 27 28  2  0
 28 29  1  0
 29 30  2  0
 30 31  1  0
 31 32  2  0
 32 33  1  0
 33 34  1  0
 34 35  1  0
 35 36  1  0
 36 37  1  0
 37 38  1  0
 38 39  1  0
 39 40  1  0
 40 41  1  0
 40 42  1  0
 42 43  1  0
 32  7  1  0
 43 37  1  0
 30  9  1  0
 26 12  1  0
 24 19  1  0
  1 44  1  0
  1 45  1  0
  1 46  1  0
  6 47  1  0
  8 48  1  0
 13 49  1  0
 14 50  1  0
 18 51  1  0
 20 52  1  0
 21 53  1  0
 22 54  1  0
 23 55  1  0
 25 56  1  0
 26 57  1  0
 27 58  1  0
 28 59  1  0
 31 60  1  0
 34 61  1  0
 34 62  1  0
 35 63  1  0
 35 64  1  0
 36 65  1  0
 36 66  1  0
 38 67  1  0
 38 68  1  0
 39 69  1  0
 39 70  1  0
 41 71  1  0
 41 72  1  0
 41 73  1  0
 42 74  1  0
 42 75  1  0
 43 76  1  0
 43 77  1  0
M  END
