
     RDKit          3D

 45 47  0  0  0  0  0  0  0  0999 V2000
   -4.1678    0.5214   -1.9786 C   0  0  0  0  0  0  0  0  0  0  0  0
   -4.1511    0.0248   -0.5195 C   0  0  0  0  0  0  0  0  0  0  0  0
   -4.5165    1.1727    0.4420 C   0  0  0  0  0  0  0  0  0  0  0  0
   -5.2060   -1.0912   -0.3713 C   0  0  0  0  0  0  0  0  0  0  0  0
   -2.8223   -0.5228   -0.1809 N   0  0  0  0  0  0  0  0  0  0  0  0
   -1.5894    0.2195   -0.2030 C   0  0  0  0  0  0  0  0  0  0  0  0
   -1.5831    1.4368   -0.5291 O   0  0  0  0  0  0  0  0  0  0  0  0
   -0.3604   -0.4461    0.1309 N   0  0  0  0  0  0  0  0  0  0  0  0
    0.9120    0.2212    0.2472 C   0  0  0  0  0  0  0  0  0  0  0  0
    0.9594    1.5789    0.3642 N   0  0  0  0  0  0  0  0  0  0  0  0
    2.1279    2.2559    0.5042 C   0  0  0  0  0  0  0  0  0  0  0  0
    2.1229    3.6092    0.6143 N   0  0  0  0  0  0  0  0  0  0  0  0
    3.2847    4.3023    0.7569 C   0  0  0  0  0  0  0  0  0  0  0  0
    3.2573    5.7231    0.8705 N   0  0  0  0  0  0  0  0  0  0  0  0
    4.4728    3.6400    0.7914 N   0  0  0  0  0  0  0  0  0  0  0  0
    4.5265    2.2864    0.6854 C   0  0  0  0  0  0  0  0  0  0  0  0
    3.3440    1.5560    0.5384 C   0  0  0  0  0  0  0  0  0  0  0  0
    3.3353    0.1640    0.4237 C   0  0  0  0  0  0  0  0  0  0  0  0
    2.1186   -0.5178    0.2765 C   0  0  0  0  0  0  0  0  0  0  0  0
    2.1344   -1.9898    0.1313 C   0  0  0  0  0  0  0  0  0  0  0  0
    2.3742   -2.8131    1.2517 C   0  0  0  0  0  0  0  0  0  0  0  0
    2.6388   -2.1321    2.8539 Cl  0  0  0  0  0  0  0  0  0  0  0  0
    2.3846   -4.2048    1.1067 C   0  0  0  0  0  0  0  0  0  0  0  0
    2.1596   -4.7845   -0.1428 C   0  0  0  0  0  0  0  0  0  0  0  0
    1.9232   -3.9774   -1.2566 C   0  0  0  0  0  0  0  0  0  0  0  0
    1.9098   -2.5841   -1.1289 C   0  0  0  0  0  0  0  0  0  0  0  0
    1.6245   -1.6102   -2.5681 Cl  0  0  0  0  0  0  0  0  0  0  0  0
   -3.4991    1.3945   -2.1201 H   0  0  0  0  0  0  0  0  0  0  0  0
   -5.1928    0.8344   -2.2734 H   0  0  0  0  0  0  0  0  0  0  0  0
   -3.8357   -0.2880   -2.6638 H   0  0  0  0  0  0  0  0  0  0  0  0
   -4.4353    0.8314    1.4964 H   0  0  0  0  0  0  0  0  0  0  0  0
   -5.5581    1.5168    0.2621 H   0  0  0  0  0  0  0  0  0  0  0  0
   -3.8486    2.0473    0.3059 H   0  0  0  0  0  0  0  0  0  0  0  0
   -6.2222   -0.7145   -0.6191 H   0  0  0  0  0  0  0  0  0  0  0  0
   -4.9722   -1.9390   -1.0510 H   0  0  0  0  0  0  0  0  0  0  0  0
   -5.2204   -1.4756    0.6716 H   0  0  0  0  0  0  0  0  0  0  0  0
   -2.7548   -1.5282    0.0992 H   0  0  0  0  0  0  0  0  0  0  0  0
   -0.4081   -1.4761    0.2959 H   0  0  0  0  0  0  0  0  0  0  0  0
    4.1450    6.2618    0.9803 H   0  0  0  0  0  0  0  0  0  0  0  0
    2.3494    6.2380    0.8449 H   0  0  0  0  0  0  0  0  0  0  0  0
    5.4868    1.7870    0.7163 H   0  0  0  0  0  0  0  0  0  0  0  0
    4.2673   -0.3899    0.4427 H   0  0  0  0  0  0  0  0  0  0  0  0
    2.5641   -4.8398    1.9650 H   0  0  0  0  0  0  0  0  0  0  0  0
    2.1685   -5.8617   -0.2482 H   0  0  0  0  0  0  0  0  0  0  0  0
    1.7523   -4.4368   -2.2219 H   0  0  0  0  0  0  0  0  0  0  0  0
  1  2  1  0
  2  3  1  0
  2  4  1  0
  2  5  1  0
  5  6  1  0
  6  7  2  0
  6  8  1  0
  8  9  1  0
  9 10  2  0
 10 11  1  0
 11 12  2  0
 12 13  1  0
 13 14  1  0
 13 15  2  0
 15 16  1  0
 16 17  2  0
 17 18  1  0
 18 19  2  0
 19 20  1  0
 20 21  2  0
 21 22  1  0
 21 23  1  0
 23 24  2  0
 24 25  1  0
 25 26  2  0
 26 27  1  0
 19  9  1  0
 26 20  1  0
 17 11  1  0
  1 28  1  0
  1 29  1  0
  1 30  1  0
  3 31  1  0
  3 32  1  0
  3 33  1  0
  4 34  1  0
  4 35  1  0
  4 36  1  0
  5 37  1  0
  8 38  1  0
 14 39  1  0
 14 40  1  0
 16 41  1  0
 18 42  1  0
 23 43  1  0
 24 44  1  0
 25 45  1  0
M  END
