
     RDKit          3D

 73 77  0  0  0  0  0  0  0  0999 V2000
    4.3505   -3.7778    2.5003 C   0  0  0  0  0  0  0  0  0  0  0  0
    3.2537   -3.1549    2.0663 C   0  0  0  0  0  0  0  0  0  0  0  0
    2.9607   -1.7289    2.3541 C   0  0  0  0  0  0  0  0  0  0  0  0
    3.7440   -1.0688    3.0936 O   0  0  0  0  0  0  0  0  0  0  0  0
    1.8151   -1.0655    1.7744 N   0  0  0  0  0  0  0  0  0  0  0  0
    0.6030   -1.8213    1.4199 C   0  0  0  0  0  0  0  0  0  0  0  0
    0.5991   -2.1966   -0.0731 C   0  0  0  0  0  0  0  0  0  0  0  0
   -0.0434   -1.0959   -0.9233 C   0  0  0  0  0  0  0  0  0  0  0  0
   -0.0356   -1.4424   -2.4198 C   0  0  0  0  0  0  0  0  0  0  0  0
   -0.7254   -0.3471   -3.2605 C   0  0  0  0  0  0  0  0  0  0  0  0
   -2.2211   -0.5817   -3.5920 C   0  0  0  0  0  0  0  0  0  0  0  0
   -3.1289   -1.1698   -2.4873 C   0  0  0  0  0  0  0  0  0  0  0  0
   -3.6426   -0.1810   -1.5229 N   0  0  0  0  0  0  0  0  0  0  0  0
   -2.9682    0.8614   -0.9745 C   0  0  0  0  0  0  0  0  0  0  0  0
   -3.6694    1.4017    0.0960 C   0  0  0  0  0  0  0  0  0  0  0  0
   -4.8195    0.6412    0.2127 C   0  0  0  0  0  0  0  0  0  0  0  0
   -5.8331    0.6428    1.1763 C   0  0  0  0  0  0  0  0  0  0  0  0
   -6.8395   -0.3316    1.0798 C   0  0  0  0  0  0  0  0  0  0  0  0
   -6.7990   -1.3010    0.0583 C   0  0  0  0  0  0  0  0  0  0  0  0
   -5.7491   -1.3083   -0.8752 C   0  0  0  0  0  0  0  0  0  0  0  0
   -4.7678   -0.3126   -0.7798 C   0  0  0  0  0  0  0  0  0  0  0  0
   -3.1576    2.4454    1.0020 C   0  0  0  0  0  0  0  0  0  0  0  0
   -4.0063    3.3983    1.5767 C   0  0  0  0  0  0  0  0  0  0  0  0
   -3.4542    4.3654    2.4145 C   0  0  0  0  0  0  0  0  0  0  0  0
   -2.1155    4.3815    2.6418 N   0  0  0  0  0  0  0  0  0  0  0  0
   -1.2957    3.4601    2.0696 C   0  0  0  0  0  0  0  0  0  0  0  0
   -1.8207    2.5084    1.2502 N   0  0  0  0  0  0  0  0  0  0  0  0
    0.1193    3.5488    2.2797 N   0  0  0  0  0  0  0  0  0  0  0  0
    1.0589    2.6192    1.7211 C   0  0  0  0  0  0  0  0  0  0  0  0
    0.9380    1.2414    1.9606 C   0  0  0  0  0  0  0  0  0  0  0  0
    1.9035    0.3441    1.4702 C   0  0  0  0  0  0  0  0  0  0  0  0
    2.9796    0.8321    0.7006 C   0  0  0  0  0  0  0  0  0  0  0  0
    3.9007   -0.0860    0.1724 O   0  0  0  0  0  0  0  0  0  0  0  0
    5.0784    0.2656   -0.5477 C   0  0  0  0  0  0  0  0  0  0  0  0
    5.8456   -1.0052   -0.9077 C   0  0  0  0  0  0  0  0  0  0  0  0
    7.1381   -0.6800   -1.6537 C   0  0  0  0  0  0  0  0  0  0  0  0
    7.7943   -1.8523   -1.9810 F   0  0  0  0  0  0  0  0  0  0  0  0
    3.1016    2.2154    0.4789 C   0  0  0  0  0  0  0  0  0  0  0  0
    2.1573    3.1006    0.9992 C   0  0  0  0  0  0  0  0  0  0  0  0
    2.3051    4.4334    0.7857 F   0  0  0  0  0  0  0  0  0  0  0  0
    5.0964   -3.2727    3.1001 H   0  0  0  0  0  0  0  0  0  0  0  0
    5.0983   -3.2746    3.1006 H   0  0  0  0  0  0  0  0  0  0  0  0
    2.5754   -3.7281    1.4525 H   0  0  0  0  0  0  0  0  0  0  0  0
   -0.3081   -1.2413    1.6805 H   0  0  0  0  0  0  0  0  0  0  0  0
    0.5423   -2.7466    2.0330 H   0  0  0  0  0  0  0  0  0  0  0  0
    1.6355   -2.3925   -0.4251 H   0  0  0  0  0  0  0  0  0  0  0  0
    0.0117   -3.1325   -0.2042 H   0  0  0  0  0  0  0  0  0  0  0  0
   -1.0825   -0.9607   -0.5703 H   0  0  0  0  0  0  0  0  0  0  0  0
    0.4997   -0.1392   -0.7773 H   0  0  0  0  0  0  0  0  0  0  0  0
   -0.4981   -2.4355   -2.6066 H   0  0  0  0  0  0  0  0  0  0  0  0
    1.0260   -1.5172   -2.7443 H   0  0  0  0  0  0  0  0  0  0  0  0
   -0.5676    0.6547   -2.8131 H   0  0  0  0  0  0  0  0  0  0  0  0
   -0.1931   -0.2932   -4.2354 H   0  0  0  0  0  0  0  0  0  0  0  0
   -2.6638    0.3693   -3.9593 H   0  0  0  0  0  0  0  0  0  0  0  0
   -2.2536   -1.2904   -4.4501 H   0  0  0  0  0  0  0  0  0  0  0  0
   -3.9925   -1.6216   -3.0210 H   0  0  0  0  0  0  0  0  0  0  0  0
   -2.6415   -2.0025   -1.9454 H   0  0  0  0  0  0  0  0  0  0  0  0
   -1.9893    1.1927   -1.2736 H   0  0  0  0  0  0  0  0  0  0  0  0
   -5.8436    1.3480    1.9952 H   0  0  0  0  0  0  0  0  0  0  0  0
   -7.6399   -0.3510    1.8083 H   0  0  0  0  0  0  0  0  0  0  0  0
   -7.5714   -2.0566    0.0055 H   0  0  0  0  0  0  0  0  0  0  0  0
   -5.7119   -2.0777   -1.6330 H   0  0  0  0  0  0  0  0  0  0  0  0
   -5.0647    3.4171    1.3591 H   0  0  0  0  0  0  0  0  0  0  0  0
   -4.0871    5.1157    2.8709 H   0  0  0  0  0  0  0  0  0  0  0  0
    0.4905    4.4221    2.7194 H   0  0  0  0  0  0  0  0  0  0  0  0
    0.1228    0.8770    2.5707 H   0  0  0  0  0  0  0  0  0  0  0  0
    5.7194    0.9159    0.0882 H   0  0  0  0  0  0  0  0  0  0  0  0
    4.7977    0.8055   -1.4787 H   0  0  0  0  0  0  0  0  0  0  0  0
    5.2040   -1.6534   -1.5461 H   0  0  0  0  0  0  0  0  0  0  0  0
    6.0905   -1.5623    0.0228 H   0  0  0  0  0  0  0  0  0  0  0  0
    6.9125   -0.1263   -2.5900 H   0  0  0  0  0  0  0  0  0  0  0  0
    7.8045   -0.0597   -1.0161 H   0  0  0  0  0  0  0  0  0  0  0  0
    3.9278    2.6193   -0.0915 H   0  0  0  0  0  0  0  0  0  0  0  0
  1  2  2  0
  2  3  1  0
  3  4  2  0
  3  5  1  0
  5  6  1  0
  6  7  1  0
  7  8  1  0
  8  9  1  0
  9 10  1  0
 10 11  1  0
 11 12  1  0
 12 13  1  0
 13 14  1  0
 14 15  2  0
 15 16  1  0
 16 17  2  0
 17 18  1  0
 18 19  2  0
 19 20  1  0
 20 21  2  0
 15 22  1  0
 22 23  1  0
 23 24  2  0
 24 25  1  0
 25 26  2  0
 26 27  1  0
 26 28  1  0
 28 29  1  0
 29 30  1  0
 30 31  2  0
 31 32  1  0
 32 33  1  0
 33 34  1  0
 34 35  1  0
 35 36  1  0
 36 37  1  0
 32 38  2  0
 38 39  1  0
 39 40  1  0
 31  5  1  0
 21 13  1  0
 27 22  2  0
 39 29  2  0
 21 16  1  0
  1 41  1  0
  1 42  1  0
  2 43  1  0
  6 44  1  0
  6 45  1  0
  7 46  1  0
  7 47  1  0
  8 48  1  0
  8 49  1  0
  9 50  1  0
  9 51  1  0
 10 52  1  0
 10 53  1  0
 11 54  1  0
 11 55  1  0
 12 56  1  0
 12 57  1  0
 14 58  1  0
 17 59  1  0
 18 60  1  0
 19 61  1  0
 20 62  1  0
 23 63  1  0
 24 64  1  0
 28 65  1  0
 30 66  1  0
 34 67  1  0
 34 68  1  0
 35 69  1  0
 35 70  1  0
 36 71  1  0
 36 72  1  0
 38 73  1  0
M  END
