
     RDKit          3D

 51 54  0  0  0  0  0  0  0  0999 V2000
   -3.5091    3.8782   -0.3572 C   0  0  0  0  0  0  0  0  0  0  0  0
   -2.9481    2.6029   -0.6674 O   0  0  0  0  0  0  0  0  0  0  0  0
   -1.6326    2.2111   -0.3645 C   0  0  0  0  0  0  0  0  0  0  0  0
   -0.7201    3.1007    0.2345 C   0  0  0  0  0  0  0  0  0  0  0  0
    0.5848    2.6927    0.5261 C   0  0  0  0  0  0  0  0  0  0  0  0
    1.4500    3.5716    1.0901 N   0  0  0  0  0  0  0  0  0  0  0  0
    2.7248    3.2115    1.3774 C   0  0  0  0  0  0  0  0  0  0  0  0
    3.1487    1.9484    1.1228 N   0  0  0  0  0  0  0  0  0  0  0  0
    2.3329    1.0136    0.5681 C   0  0  0  0  0  0  0  0  0  0  0  0
    2.8062   -0.3383    0.4052 N   0  0  0  0  0  0  0  0  0  0  0  0
    4.1472   -0.6791    0.0143 C   0  0  0  0  0  0  0  0  0  0  0  0
    5.2664   -0.1365    0.6752 C   0  0  0  0  0  0  0  0  0  0  0  0
    6.5557   -0.5127    0.2973 C   0  0  0  0  0  0  0  0  0  0  0  0
    6.7432   -1.4483   -0.7240 C   0  0  0  0  0  0  0  0  0  0  0  0
    5.6386   -2.0154   -1.3698 C   0  0  0  0  0  0  0  0  0  0  0  0
    5.8817   -3.2105   -2.6303 Cl  0  0  0  0  0  0  0  0  0  0  0  0
    4.3439   -1.6354   -0.9982 C   0  0  0  0  0  0  0  0  0  0  0  0
    3.2748   -2.1827   -1.6377 F   0  0  0  0  0  0  0  0  0  0  0  0
    1.0067    1.3790    0.2280 C   0  0  0  0  0  0  0  0  0  0  0  0
    0.1069    0.5053   -0.4101 C   0  0  0  0  0  0  0  0  0  0  0  0
   -1.2186    0.8985   -0.6729 C   0  0  0  0  0  0  0  0  0  0  0  0
   -2.1702   -0.0846   -1.3239 C   0  0  0  0  0  0  0  0  0  0  0  0
   -2.0429   -1.4282   -0.7210 N   0  0  0  0  0  0  0  0  0  0  0  0
   -2.8127   -2.4539   -1.4289 C   0  0  0  0  0  0  0  0  0  0  0  0
   -3.0861   -3.5744   -0.4260 C   0  0  0  0  0  0  0  0  0  0  0  0
   -2.6107   -3.0471    0.9235 C   0  0  0  0  0  0  0  0  0  0  0  0
   -2.4052   -1.5498    0.7039 C   0  0  2  0  0  0  0  0  0  0  0  0
   -3.6511   -0.7668    1.0799 C   0  0  0  0  0  0  0  0  0  0  0  0
   -3.5263    0.4851    1.7495 N   0  0  0  0  0  0  0  0  0  0  0  0
   -4.7958   -1.2197    0.8047 O   0  0  0  0  0  0  0  0  0  0  0  0
   -3.4932    4.0419    0.7390 H   0  0  0  0  0  0  0  0  0  0  0  0
   -4.5627    3.9058   -0.7024 H   0  0  0  0  0  0  0  0  0  0  0  0
   -2.9469    4.6813   -0.8770 H   0  0  0  0  0  0  0  0  0  0  0  0
   -1.0136    4.1159    0.4746 H   0  0  0  0  0  0  0  0  0  0  0  0
    3.4013    3.9280    1.8252 H   0  0  0  0  0  0  0  0  0  0  0  0
    2.1173   -1.1206    0.4347 H   0  0  0  0  0  0  0  0  0  0  0  0
    5.1531    0.5468    1.5061 H   0  0  0  0  0  0  0  0  0  0  0  0
    7.4135   -0.0932    0.8088 H   0  0  0  0  0  0  0  0  0  0  0  0
    7.7447   -1.7424   -1.0051 H   0  0  0  0  0  0  0  0  0  0  0  0
    0.4150   -0.4819   -0.7169 H   0  0  0  0  0  0  0  0  0  0  0  0
   -1.9033   -0.1427   -2.4007 H   0  0  0  0  0  0  0  0  0  0  0  0
   -3.2261    0.2638   -1.2777 H   0  0  0  0  0  0  0  0  0  0  0  0
   -2.2218   -2.8369   -2.2881 H   0  0  0  0  0  0  0  0  0  0  0  0
   -3.7786   -2.0480   -1.8065 H   0  0  0  0  0  0  0  0  0  0  0  0
   -4.1743   -3.8008   -0.3914 H   0  0  0  0  0  0  0  0  0  0  0  0
   -2.5334   -4.4979   -0.6999 H   0  0  0  0  0  0  0  0  0  0  0  0
   -3.3361   -3.2728    1.7374 H   0  0  0  0  0  0  0  0  0  0  0  0
   -1.6365   -3.5209    1.1784 H   0  0  0  0  0  0  0  0  0  0  0  0
   -1.5551   -1.2043    1.3339 H   0  0  0  0  0  0  0  0  0  0  0  0
   -4.3630    1.0375    2.0361 H   0  0  0  0  0  0  0  0  0  0  0  0
   -4.3834    1.0262    2.0230 H   0  0  0  0  0  0  0  0  0  0  0  0
  1  2  1  0
  2  3  1  0
  3  4  2  0
  4  5  1  0
  5  6  2  0
  6  7  1  0
  7  8  2  0
  8  9  1  0
  9 10  1  0
 10 11  1  0
 11 12  2  0
 12 13  1  0
 13 14  2  0
 14 15  1  0
 15 16  1  0
 15 17  2  0
 17 18  1  0
  9 19  2  0
 19 20  1  0
 20 21  2  0
 21 22  1  0
 22 23  1  0
 23 24  1  0
 24 25  1  0
 25 26  1  0
 26 27  1  0
 27 28  1  0
 28 29  1  0
 28 30  2  0
 21  3  1  0
 27 23  1  0
 19  5  1  0
 17 11  1  0
  1 31  1  0
  1 32  1  0
  1 33  1  0
  4 34  1  0
  7 35  1  0
 10 36  1  0
 12 37  1  0
 13 38  1  0
 14 39  1  0
 20 40  1  0
 22 41  1  0
 22 42  1  0
 24 43  1  0
 24 44  1  0
 25 45  1  0
 25 46  1  0
 26 47  1  0
 26 48  1  0
 27 49  1  1
 29 50  1  0
 29 51  1  0
M  END
