
     RDKit          3D

 48 50  0  0  0  0  0  0  0  0999 V2000
   -6.8987    2.2378   -0.2714 C   0  0  0  0  0  0  0  0  0  0  0  0
   -6.0170    1.1302   -0.4248 O   0  0  0  0  0  0  0  0  0  0  0  0
   -4.6272    1.1862   -0.2324 C   0  0  0  0  0  0  0  0  0  0  0  0
   -3.9726    2.3764    0.1377 C   0  0  0  0  0  0  0  0  0  0  0  0
   -2.5873    2.3961    0.3197 C   0  0  0  0  0  0  0  0  0  0  0  0
   -1.9686    3.5524    0.6750 N   0  0  0  0  0  0  0  0  0  0  0  0
   -0.6248    3.6004    0.8573 C   0  0  0  0  0  0  0  0  0  0  0  0
    0.1266    2.4832    0.6860 N   0  0  0  0  0  0  0  0  0  0  0  0
   -0.4365    1.2986    0.3317 C   0  0  0  0  0  0  0  0  0  0  0  0
    0.4227    0.1546    0.1655 C   0  0  0  0  0  0  0  0  0  0  0  0
    1.1390   -0.8040    0.0218 C   0  0  0  0  0  0  0  0  0  0  0  0
    2.0162   -1.9769   -0.1580 C   0  0  0  0  0  0  0  0  0  0  0  0
    2.4112   -2.5242    1.2269 C   0  0  0  0  0  0  0  0  0  0  0  0
    1.2238   -3.0560   -0.9179 C   0  0  0  0  0  0  0  0  0  0  0  0
    3.2696   -1.5866   -0.9900 C   0  0  0  0  0  0  0  0  0  0  0  0
    4.1157   -0.5049   -0.3543 C   0  0  0  0  0  0  0  0  0  0  0  0
    3.8260    0.8516   -0.5840 C   0  0  0  0  0  0  0  0  0  0  0  0
    4.5958    1.8497    0.0208 C   0  0  0  0  0  0  0  0  0  0  0  0
    5.6615    1.5031    0.8556 C   0  0  0  0  0  0  0  0  0  0  0  0
    5.9600    0.1576    1.0860 C   0  0  0  0  0  0  0  0  0  0  0  0
    5.1920   -0.8440    0.4840 C   0  0  0  0  0  0  0  0  0  0  0  0
   -1.8311    1.2207    0.1348 C   0  0  0  0  0  0  0  0  0  0  0  0
   -2.4858    0.0311   -0.2347 C   0  0  0  0  0  0  0  0  0  0  0  0
   -3.8822    0.0112   -0.4192 C   0  0  0  0  0  0  0  0  0  0  0  0
   -4.5670   -1.1579   -0.7891 O   0  0  0  0  0  0  0  0  0  0  0  0
   -3.9479   -2.4203   -1.0157 C   0  0  0  0  0  0  0  0  0  0  0  0
   -6.6279    3.0434   -0.9861 H   0  0  0  0  0  0  0  0  0  0  0  0
   -7.9358    1.9076   -0.4853 H   0  0  0  0  0  0  0  0  0  0  0  0
   -6.8550    2.6192    0.7706 H   0  0  0  0  0  0  0  0  0  0  0  0
   -4.5309    3.2914    0.2857 H   0  0  0  0  0  0  0  0  0  0  0  0
   -0.1516    4.5307    1.1397 H   0  0  0  0  0  0  0  0  0  0  0  0
    2.8946   -1.7375    1.8449 H   0  0  0  0  0  0  0  0  0  0  0  0
    1.5140   -2.8808    1.7784 H   0  0  0  0  0  0  0  0  0  0  0  0
    3.1176   -3.3757    1.1220 H   0  0  0  0  0  0  0  0  0  0  0  0
    0.3075   -3.3434   -0.3564 H   0  0  0  0  0  0  0  0  0  0  0  0
    0.9129   -2.6846   -1.9190 H   0  0  0  0  0  0  0  0  0  0  0  0
    1.8441   -3.9672   -1.0612 H   0  0  0  0  0  0  0  0  0  0  0  0
    3.8980   -2.4897   -1.1573 H   0  0  0  0  0  0  0  0  0  0  0  0
    2.9530   -1.2448   -2.0012 H   0  0  0  0  0  0  0  0  0  0  0  0
    3.0038    1.1355   -1.2292 H   0  0  0  0  0  0  0  0  0  0  0  0
    4.3656    2.8922   -0.1575 H   0  0  0  0  0  0  0  0  0  0  0  0
    6.2563    2.2771    1.3233 H   0  0  0  0  0  0  0  0  0  0  0  0
    6.7857   -0.1097    1.7329 H   0  0  0  0  0  0  0  0  0  0  0  0
    5.4319   -1.8825    0.6754 H   0  0  0  0  0  0  0  0  0  0  0  0
   -1.9137   -0.8748   -0.3787 H   0  0  0  0  0  0  0  0  0  0  0  0
   -3.2156   -2.3430   -1.8471 H   0  0  0  0  0  0  0  0  0  0  0  0
   -3.4420   -2.7694   -0.0907 H   0  0  0  0  0  0  0  0  0  0  0  0
   -4.7256   -3.1601   -1.2957 H   0  0  0  0  0  0  0  0  0  0  0  0
  1  2  1  0
  2  3  1  0
  3  4  2  0
  4  5  1  0
  5  6  2  0
  6  7  1  0
  7  8  2  0
  8  9  1  0
  9 10  1  0
 10 11  3  0
 11 12  1  0
 12 13  1  0
 12 14  1  0
 12 15  1  0
 15 16  1  0
 16 17  2  0
 17 18  1  0
 18 19  2  0
 19 20  1  0
 20 21  2  0
  9 22  2  0
 22 23  1  0
 23 24  2  0
 24 25  1  0
 25 26  1  0
 24  3  1  0
 22  5  1  0
 21 16  1  0
  1 27  1  0
  1 28  1  0
  1 29  1  0
  4 30  1  0
  7 31  1  0
 13 32  1  0
 13 33  1  0
 13 34  1  0
 14 35  1  0
 14 36  1  0
 14 37  1  0
 15 38  1  0
 15 39  1  0
 17 40  1  0
 18 41  1  0
 19 42  1  0
 20 43  1  0
 21 44  1  0
 23 45  1  0
 26 46  1  0
 26 47  1  0
 26 48  1  0
M  END
