
     RDKit          3D

 62 66  0  0  0  0  0  0  0  0999 V2000
    6.1329   -2.4009    2.8565 C   0  0  0  0  0  0  0  0  0  0  0  0
    5.6714   -3.4193    2.1356 C   0  0  0  0  0  0  0  0  0  0  0  0
    4.9848   -3.2560    0.8370 C   0  0  0  0  0  0  0  0  0  0  0  0
    5.1056   -4.1722   -0.0184 O   0  0  0  0  0  0  0  0  0  0  0  0
    4.1792   -2.1004    0.5260 N   0  0  0  0  0  0  0  0  0  0  0  0
    3.3479   -1.4501    1.5513 C   0  0  0  0  0  0  0  0  0  0  0  0
    1.9412   -1.1707    1.0074 C   0  0  0  0  0  0  0  0  0  0  0  0
    1.9338   -0.4773   -0.3839 C   0  0  0  0  0  0  0  0  0  0  0  0
    1.3435    0.8217   -0.2951 O   0  0  0  0  0  0  0  0  0  0  0  0
   -0.0203    1.1066   -0.1075 C   0  0  0  0  0  0  0  0  0  0  0  0
   -1.0039    0.0999   -0.0427 C   0  0  0  0  0  0  0  0  0  0  0  0
   -2.3684    0.4327    0.1053 C   0  0  0  0  0  0  0  0  0  0  0  0
   -3.4211   -0.5234    0.1211 C   0  0  0  0  0  0  0  0  0  0  0  0
   -3.1896   -1.9416   -0.0412 N   0  0  0  0  0  0  0  0  0  0  0  0
   -4.2465   -2.9189   -0.0637 C   0  0  0  0  0  0  0  0  0  0  0  0
   -4.1991   -3.9616   -1.0011 C   0  0  0  0  0  0  0  0  0  0  0  0
   -5.2237   -4.9101   -1.0566 C   0  0  0  0  0  0  0  0  0  0  0  0
   -6.3041   -4.8280   -0.1713 C   0  0  0  0  0  0  0  0  0  0  0  0
   -7.2978   -5.7481   -0.2389 F   0  0  0  0  0  0  0  0  0  0  0  0
   -6.3427   -3.8165    0.7954 C   0  0  0  0  0  0  0  0  0  0  0  0
   -7.6757   -3.7292    1.9357 Cl  0  0  0  0  0  0  0  0  0  0  0  0
   -5.3073   -2.8771    0.8602 C   0  0  0  0  0  0  0  0  0  0  0  0
   -4.7024   -0.0805    0.2506 N   0  0  0  0  0  0  0  0  0  0  0  0
   -5.0047    1.2305    0.3910 C   0  0  0  0  0  0  0  0  0  0  0  0
   -4.0198    2.1580    0.3791 N   0  0  0  0  0  0  0  0  0  0  0  0
   -2.7200    1.7975    0.2343 C   0  0  0  0  0  0  0  0  0  0  0  0
   -1.7371    2.7897    0.1991 C   0  0  0  0  0  0  0  0  0  0  0  0
   -0.3895    2.4524    0.0030 C   0  0  0  0  0  0  0  0  0  0  0  0
    0.6200    3.4249   -0.0979 O   0  0  0  0  0  0  0  0  0  0  0  0
    0.4233    4.8407   -0.0609 C   0  0  1  0  0  0  0  0  0  0  0  0
    1.7551    5.5287   -0.0990 C   0  0  0  0  0  0  0  0  0  0  0  0
    1.9894    5.7347   -1.5799 C   0  0  0  0  0  0  0  0  0  0  0  0
    0.7455    5.8127   -2.2349 O   0  0  0  0  0  0  0  0  0  0  0  0
   -0.2368    5.3395   -1.3412 C   0  0  0  0  0  0  0  0  0  0  0  0
    3.3425   -0.3192   -0.9759 C   0  0  0  0  0  0  0  0  0  0  0  0
    4.1349   -1.6249   -0.8636 C   0  0  0  0  0  0  0  0  0  0  0  0
    6.0200   -1.3736    2.5435 H   0  0  0  0  0  0  0  0  0  0  0  0
    6.0156   -1.3715    2.5333 H   0  0  0  0  0  0  0  0  0  0  0  0
    5.8908   -4.4232    2.4797 H   0  0  0  0  0  0  0  0  0  0  0  0
    3.2530   -2.0947    2.4496 H   0  0  0  0  0  0  0  0  0  0  0  0
    3.8176   -0.4925    1.8588 H   0  0  0  0  0  0  0  0  0  0  0  0
    1.4019   -2.1389    0.9278 H   0  0  0  0  0  0  0  0  0  0  0  0
    1.3949   -0.5524    1.7524 H   0  0  0  0  0  0  0  0  0  0  0  0
    1.3502   -1.1004   -1.0992 H   0  0  0  0  0  0  0  0  0  0  0  0
   -0.6880   -0.9231   -0.1143 H   0  0  0  0  0  0  0  0  0  0  0  0
   -2.2435   -2.2999   -0.2956 H   0  0  0  0  0  0  0  0  0  0  0  0
   -3.3704   -4.0315   -1.6967 H   0  0  0  0  0  0  0  0  0  0  0  0
   -5.1756   -5.7119   -1.7848 H   0  0  0  0  0  0  0  0  0  0  0  0
   -5.3178   -2.1359    1.6448 H   0  0  0  0  0  0  0  0  0  0  0  0
   -6.0348    1.5370    0.5030 H   0  0  0  0  0  0  0  0  0  0  0  0
   -2.0355    3.8240    0.2955 H   0  0  0  0  0  0  0  0  0  0  0  0
   -0.1418    5.1299    0.8538 H   0  0  0  0  0  0  0  0  0  0  0  0
    2.5598    4.9212    0.3724 H   0  0  0  0  0  0  0  0  0  0  0  0
    1.6902    6.5127    0.4134 H   0  0  0  0  0  0  0  0  0  0  0  0
    2.5632    4.8809   -1.9980 H   0  0  0  0  0  0  0  0  0  0  0  0
    2.5685    6.6696   -1.7540 H   0  0  0  0  0  0  0  0  0  0  0  0
   -0.9278    6.1736   -1.1000 H   0  0  0  0  0  0  0  0  0  0  0  0
   -0.8252    4.5383   -1.8339 H   0  0  0  0  0  0  0  0  0  0  0  0
    3.2738   -0.0169   -2.0426 H   0  0  0  0  0  0  0  0  0  0  0  0
    3.8876    0.4839   -0.4337 H   0  0  0  0  0  0  0  0  0  0  0  0
    3.6643   -2.4019   -1.5049 H   0  0  0  0  0  0  0  0  0  0  0  0
    5.1688   -1.4470   -1.2313 H   0  0  0  0  0  0  0  0  0  0  0  0
  1  2  2  0
  2  3  1  0
  3  4  2  0
  3  5  1  0
  5  6  1  0
  6  7  1  0
  7  8  1  0
  8  9  1  0
  9 10  1  0
 10 11  2  0
 11 12  1  0
 12 13  2  0
 13 14  1  0
 14 15  1  0
 15 16  2  0
 16 17  1  0
 17 18  2  0
 18 19  1  0
 18 20  1  0
 20 21  1  0
 20 22  2  0
 13 23  1  0
 23 24  2  0
 24 25  1  0
 25 26  2  0
 26 27  1  0
 27 28  2  0
 28 29  1  0
 29 30  1  0
 30 31  1  0
 31 32  1  0
 32 33  1  0
 33 34  1  0
  8 35  1  0
 35 36  1  0
 36  5  1  0
 28 10  1  0
 34 30  1  0
 26 12  1  0
 22 15  1  0
  1 37  1  0
  1 38  1  0
  2 39  1  0
  6 40  1  0
  6 41  1  0
  7 42  1  0
  7 43  1  0
  8 44  1  0
 11 45  1  0
 14 46  1  0
 16 47  1  0
 17 48  1  0
 22 49  1  0
 24 50  1  0
 27 51  1  0
 30 52  1  1
 31 53  1  0
 31 54  1  0
 32 55  1  0
 32 56  1  0
 34 57  1  0
 34 58  1  0
 35 59  1  0
 35 60  1  0
 36 61  1  0
 36 62  1  0
M  END
