
     RDKit          3D

 48 51  0  0  0  0  0  0  0  0999 V2000
   -6.1140    3.0792   -2.5486 C   0  0  0  0  0  0  0  0  0  0  0  0
   -4.8172    3.0821   -1.7556 C   0  0  0  0  0  0  0  0  0  0  0  0
   -4.3210    1.7501   -1.6513 O   0  0  0  0  0  0  0  0  0  0  0  0
   -3.1416    1.3885   -0.9809 C   0  0  0  0  0  0  0  0  0  0  0  0
   -2.3264    2.3397   -0.3408 C   0  0  0  0  0  0  0  0  0  0  0  0
   -1.1612    1.9440    0.3201 C   0  0  0  0  0  0  0  0  0  0  0  0
   -0.3768    2.8775    0.9179 N   0  0  0  0  0  0  0  0  0  0  0  0
    0.7634    2.5248    1.5611 C   0  0  0  0  0  0  0  0  0  0  0  0
    1.1339    1.2215    1.6242 N   0  0  0  0  0  0  0  0  0  0  0  0
    0.3933    0.2380    1.0434 C   0  0  0  0  0  0  0  0  0  0  0  0
    0.8071   -1.1317    1.1903 N   0  0  0  0  0  0  0  0  0  0  0  0
    2.1850   -1.5356    1.2762 C   0  0  0  0  0  0  0  0  0  0  0  0
    2.5171   -2.7096    1.9663 C   0  0  0  0  0  0  0  0  0  0  0  0
    3.8458   -3.1289    2.0477 C   0  0  0  0  0  0  0  0  0  0  0  0
    4.8558   -2.3874    1.4314 C   0  0  0  0  0  0  0  0  0  0  0  0
    4.5455   -1.2175    0.7166 C   0  0  0  0  0  0  0  0  0  0  0  0
    5.6221   -0.4437    0.0555 C   0  0  0  0  0  0  0  0  0  0  0  0
    6.9258   -0.8045    0.0820 N   0  0  0  0  0  0  0  0  0  0  0  0
    7.7180    0.0694   -0.5950 C   0  0  0  0  0  0  0  0  0  0  0  0
    7.0538    1.1437   -1.1725 C   0  0  0  0  0  0  0  0  0  0  0  0
    5.4194    0.9848   -0.8174 S   0  0  0  0  0  0  0  0  0  0  0  0
    3.2029   -0.8026    0.6378 C   0  0  0  0  0  0  0  0  0  0  0  0
   -0.7944    0.5824    0.3603 C   0  0  0  0  0  0  0  0  0  0  0  0
   -1.5997   -0.3648   -0.2981 C   0  0  0  0  0  0  0  0  0  0  0  0
   -2.7784    0.0331   -0.9607 C   0  0  0  0  0  0  0  0  0  0  0  0
   -3.6162   -0.8820   -1.6231 O   0  0  0  0  0  0  0  0  0  0  0  0
   -3.4766   -2.3032   -1.6144 C   0  0  0  0  0  0  0  0  0  0  0  0
   -3.9200   -2.8834   -0.2756 C   0  0  0  0  0  0  0  0  0  0  0  0
   -6.8707    2.4483   -2.0359 H   0  0  0  0  0  0  0  0  0  0  0  0
   -6.5048    4.1152   -2.6326 H   0  0  0  0  0  0  0  0  0  0  0  0
   -5.9343    2.6773   -3.5682 H   0  0  0  0  0  0  0  0  0  0  0  0
   -4.0731    3.7215   -2.2782 H   0  0  0  0  0  0  0  0  0  0  0  0
   -5.0127    3.4919   -0.7409 H   0  0  0  0  0  0  0  0  0  0  0  0
   -2.5875    3.3897   -0.3535 H   0  0  0  0  0  0  0  0  0  0  0  0
    1.3747    3.2828    2.0309 H   0  0  0  0  0  0  0  0  0  0  0  0
    0.0745   -1.8529    1.3763 H   0  0  0  0  0  0  0  0  0  0  0  0
    1.7453   -3.2955    2.4495 H   0  0  0  0  0  0  0  0  0  0  0  0
    4.0939   -4.0322    2.5901 H   0  0  0  0  0  0  0  0  0  0  0  0
    5.8787   -2.7336    1.5102 H   0  0  0  0  0  0  0  0  0  0  0  0
    8.7877   -0.0699   -0.6729 H   0  0  0  0  0  0  0  0  0  0  0  0
    7.5096    1.9387   -1.7469 H   0  0  0  0  0  0  0  0  0  0  0  0
    2.9434    0.0772    0.0652 H   0  0  0  0  0  0  0  0  0  0  0  0
   -1.3045   -1.4014   -0.3137 H   0  0  0  0  0  0  0  0  0  0  0  0
   -2.4349   -2.6025   -1.8556 H   0  0  0  0  0  0  0  0  0  0  0  0
   -4.1307   -2.7207   -2.4086 H   0  0  0  0  0  0  0  0  0  0  0  0
   -4.9731   -2.5966   -0.0705 H   0  0  0  0  0  0  0  0  0  0  0  0
   -3.2780   -2.5104    0.5484 H   0  0  0  0  0  0  0  0  0  0  0  0
   -3.8492   -3.9910   -0.3078 H   0  0  0  0  0  0  0  0  0  0  0  0
  1  2  1  0
  2  3  1  0
  3  4  1  0
  4  5  2  0
  5  6  1  0
  6  7  2  0
  7  8  1  0
  8  9  2  0
  9 10  1  0
 10 11  1  0
 11 12  1  0
 12 13  2  0
 13 14  1  0
 14 15  2  0
 15 16  1  0
 16 17  1  0
 17 18  2  0
 18 19  1  0
 19 20  2  0
 20 21  1  0
 16 22  2  0
 10 23  2  0
 23 24  1  0
 24 25  2  0
 25 26  1  0
 26 27  1  0
 27 28  1  0
 25  4  1  0
 23  6  1  0
 22 12  1  0
 21 17  1  0
  1 29  1  0
  1 30  1  0
  1 31  1  0
  2 32  1  0
  2 33  1  0
  5 34  1  0
  8 35  1  0
 11 36  1  0
 13 37  1  0
 14 38  1  0
 15 39  1  0
 19 40  1  0
 20 41  1  0
 22 42  1  0
 24 43  1  0
 27 44  1  0
 27 45  1  0
 28 46  1  0
 28 47  1  0
 28 48  1  0
M  END
