
     RDKit          3D

 77 81  0  0  0  0  0  0  0  0999 V2000
    1.9223   -3.8544   -6.2850 C   0  0  0  0  0  0  0  0  0  0  0  0
    2.2316   -2.3632   -6.2143 C   0  0  0  0  0  0  0  0  0  0  0  0
    2.1185   -1.8870   -4.8731 O   0  0  0  0  0  0  0  0  0  0  0  0
    0.9167   -1.6804   -4.1705 C   0  0  0  0  0  0  0  0  0  0  0  0
   -0.3394   -1.7311   -4.8041 C   0  0  0  0  0  0  0  0  0  0  0  0
   -1.5117   -1.5068   -4.0782 C   0  0  0  0  0  0  0  0  0  0  0  0
   -2.7126   -1.5661   -4.7090 N   0  0  0  0  0  0  0  0  0  0  0  0
   -3.8688   -1.3640   -4.0313 C   0  0  0  0  0  0  0  0  0  0  0  0
   -3.8399   -1.0919   -2.7031 N   0  0  0  0  0  0  0  0  0  0  0  0
   -2.6701   -1.0243   -2.0101 C   0  0  0  0  0  0  0  0  0  0  0  0
   -2.7012   -0.6823   -0.6126 N   0  0  0  0  0  0  0  0  0  0  0  0
   -3.8191   -0.9723    0.2455 C   0  0  0  0  0  0  0  0  0  0  0  0
   -4.0893   -0.1332    1.3355 C   0  0  0  0  0  0  0  0  0  0  0  0
   -5.1731   -0.3923    2.1786 C   0  0  0  0  0  0  0  0  0  0  0  0
   -6.0044   -1.5057    1.9490 C   0  0  0  0  0  0  0  0  0  0  0  0
   -7.1191   -1.7915    2.7562 O   0  0  0  0  0  0  0  0  0  0  0  0
   -7.6122   -0.9637    3.8104 C   0  0  0  0  0  0  0  0  0  0  0  0
   -8.2001    0.3120    3.2643 C   0  0  0  0  0  0  0  0  0  0  0  0
   -9.1545    0.2656    2.2337 C   0  0  0  0  0  0  0  0  0  0  0  0
   -9.7074    1.4488    1.7320 C   0  0  0  0  0  0  0  0  0  0  0  0
   -9.3179    2.6838    2.2583 C   0  0  0  0  0  0  0  0  0  0  0  0
   -8.3800    2.7380    3.2941 C   0  0  0  0  0  0  0  0  0  0  0  0
   -8.0064    3.9364    3.8076 F   0  0  0  0  0  0  0  0  0  0  0  0
   -7.8255    1.5567    3.7998 C   0  0  0  0  0  0  0  0  0  0  0  0
   -5.7134   -2.3652    0.8786 C   0  0  0  0  0  0  0  0  0  0  0  0
   -6.7137   -3.7781    0.5730 Cl  0  0  0  0  0  0  0  0  0  0  0  0
   -4.6253   -2.1051    0.0382 C   0  0  0  0  0  0  0  0  0  0  0  0
   -1.4518   -1.2316   -2.6956 C   0  0  0  0  0  0  0  0  0  0  0  0
   -0.1983   -1.2013   -2.0579 C   0  0  0  0  0  0  0  0  0  0  0  0
    0.9850   -1.3953   -2.7933 C   0  0  0  0  0  0  0  0  0  0  0  0
    2.2653   -1.3655   -2.1371 N   0  0  0  0  0  0  0  0  0  0  0  0
    2.6254   -0.3969   -1.1402 C   0  0  0  0  0  0  0  0  0  0  0  0
    1.8427    0.5538   -0.8627 O   0  0  0  0  0  0  0  0  0  0  0  0
    3.9340   -0.5003   -0.4671 C   0  0  0  0  0  0  0  0  0  0  0  0
    4.3488    0.3924    0.4364 C   0  0  0  0  0  0  0  0  0  0  0  0
    5.7019    0.2610    1.0800 C   0  0  0  0  0  0  0  0  0  0  0  0
    5.9826    1.4109    1.9676 N   0  0  0  0  0  0  0  0  0  0  0  0
    6.1078    2.6817    1.2032 C   0  0  0  0  0  0  0  0  0  0  0  0
    7.2308    3.5846    1.7244 C   0  0  0  0  0  0  0  0  0  0  0  0
    8.5233    2.8771    1.6510 N   0  0  0  0  0  0  0  0  0  0  0  0
    9.5818    3.6821    2.2820 C   0  0  0  0  0  0  0  0  0  0  0  0
    8.4811    1.4961    2.2013 C   0  0  0  0  0  0  0  0  0  0  0  0
    7.1349    1.1401    2.8600 C   0  0  0  0  0  0  0  0  0  0  0  0
    0.8719   -4.0518   -5.9844 H   0  0  0  0  0  0  0  0  0  0  0  0
    2.6023   -4.4114   -5.6073 H   0  0  0  0  0  0  0  0  0  0  0  0
    2.0715   -4.2202   -7.3220 H   0  0  0  0  0  0  0  0  0  0  0  0
    3.2780   -2.2087   -6.5520 H   0  0  0  0  0  0  0  0  0  0  0  0
    1.5744   -1.7863   -6.8976 H   0  0  0  0  0  0  0  0  0  0  0  0
   -0.4215   -1.9368   -5.8624 H   0  0  0  0  0  0  0  0  0  0  0  0
   -4.8152   -1.4156   -4.5510 H   0  0  0  0  0  0  0  0  0  0  0  0
   -1.9515   -0.0588   -0.2376 H   0  0  0  0  0  0  0  0  0  0  0  0
   -3.4655    0.7321    1.5246 H   0  0  0  0  0  0  0  0  0  0  0  0
   -5.3530    0.2788    3.0056 H   0  0  0  0  0  0  0  0  0  0  0  0
   -8.4132   -1.5173    4.3440 H   0  0  0  0  0  0  0  0  0  0  0  0
   -6.8033   -0.7687    4.5480 H   0  0  0  0  0  0  0  0  0  0  0  0
   -9.4665   -0.6854    1.8181 H   0  0  0  0  0  0  0  0  0  0  0  0
  -10.4390    1.4089    0.9349 H   0  0  0  0  0  0  0  0  0  0  0  0
   -9.7470    3.5978    1.8662 H   0  0  0  0  0  0  0  0  0  0  0  0
   -7.1012    1.6130    4.6033 H   0  0  0  0  0  0  0  0  0  0  0  0
   -4.4052   -2.7947   -0.7672 H   0  0  0  0  0  0  0  0  0  0  0  0
   -0.1268   -1.0650   -0.9887 H   0  0  0  0  0  0  0  0  0  0  0  0
    3.0161   -2.0039   -2.4895 H   0  0  0  0  0  0  0  0  0  0  0  0
    4.5864   -1.3244   -0.7351 H   0  0  0  0  0  0  0  0  0  0  0  0
    3.7078    1.2215    0.7153 H   0  0  0  0  0  0  0  0  0  0  0  0
    6.4884    0.1723    0.2956 H   0  0  0  0  0  0  0  0  0  0  0  0
    5.6915   -0.6858    1.6644 H   0  0  0  0  0  0  0  0  0  0  0  0
    5.1476    3.2354    1.2790 H   0  0  0  0  0  0  0  0  0  0  0  0
    6.2989    2.4967    0.1206 H   0  0  0  0  0  0  0  0  0  0  0  0
    7.0023    3.9019    2.7681 H   0  0  0  0  0  0  0  0  0  0  0  0
    7.2703    4.4977    1.0905 H   0  0  0  0  0  0  0  0  0  0  0  0
   10.5726    3.2041    2.1199 H   0  0  0  0  0  0  0  0  0  0  0  0
    9.6245    4.6917    1.8186 H   0  0  0  0  0  0  0  0  0  0  0  0
    9.4003    3.7899    3.3753 H   0  0  0  0  0  0  0  0  0  0  0  0
    9.2896    1.3144    2.9474 H   0  0  0  0  0  0  0  0  0  0  0  0
    8.6628    0.7864    1.3658 H   0  0  0  0  0  0  0  0  0  0  0  0
    7.0173    1.7413    3.7872 H   0  0  0  0  0  0  0  0  0  0  0  0
    7.1551    0.0794    3.1941 H   0  0  0  0  0  0  0  0  0  0  0  0
  1  2  1  0
  2  3  1  0
  3  4  1  0
  4  5  2  0
  5  6  1  0
  6  7  2  0
  7  8  1  0
  8  9  2  0
  9 10  1  0
 10 11  1  0
 11 12  1  0
 12 13  2  0
 13 14  1  0
 14 15  2  0
 15 16  1  0
 16 17  1  0
 17 18  1  0
 18 19  2  0
 19 20  1  0
 20 21  2  0
 21 22  1  0
 22 23  1  0
 22 24  2  0
 15 25  1  0
 25 26  1  0
 25 27  2  0
 10 28  2  0
 28 29  1  0
 29 30  2  0
 30 31  1  0
 31 32  1  0
 32 33  2  0
 32 34  1  0
 34 35  2  0
 35 36  1  0
 36 37  1  0
 37 38  1  0
 38 39  1  0
 39 40  1  0
 40 41  1  0
 40 42  1  0
 42 43  1  0
 30  4  1  0
 43 37  1  0
 28  6  1  0
 27 12  1  0
 24 18  1  0
  1 44  1  0
  1 45  1  0
  1 46  1  0
  2 47  1  0
  2 48  1  0
  5 49  1  0
  8 50  1  0
 11 51  1  0
 13 52  1  0
 14 53  1  0
 17 54  1  0
 17 55  1  0
 19 56  1  0
 20 57  1  0
 21 58  1  0
 24 59  1  0
 27 60  1  0
 29 61  1  0
 31 62  1  0
 34 63  1  0
 35 64  1  0
 36 65  1  0
 36 66  1  0
 38 67  1  0
 38 68  1  0
 39 69  1  0
 39 70  1  0
 41 71  1  0
 41 72  1  0
 41 73  1  0
 42 74  1  0
 42 75  1  0
 43 76  1  0
 43 77  1  0
M  END
