
     RDKit          3D

 47 51  0  0  0  0  0  0  0  0999 V2000
   -5.8402    4.7604   -3.2635 Br  0  0  0  0  0  0  0  0  0  0  0  0
   -4.6021    3.7394   -2.2281 C   0  0  0  0  0  0  0  0  0  0  0  0
   -4.8549    2.3905   -1.9651 C   0  0  0  0  0  0  0  0  0  0  0  0
   -3.9498    1.6412   -1.2074 C   0  0  0  0  0  0  0  0  0  0  0  0
   -2.7773    2.2353   -0.7026 C   0  0  0  0  0  0  0  0  0  0  0  0
   -1.8171    1.4397    0.0995 C   0  0  0  0  0  0  0  0  0  0  0  0
   -2.0149    0.1988    0.3860 N   0  0  0  0  0  0  0  0  0  0  0  0
   -0.9608   -0.3074    1.1461 N   0  0  0  0  0  0  0  0  0  0  0  0
   -0.9419   -1.6570    1.6536 C   0  0  0  0  0  0  0  0  0  0  0  0
    0.0201   -2.0653    2.5977 C   0  0  0  0  0  0  0  0  0  0  0  0
    0.0312   -3.3795    3.0745 C   0  0  0  0  0  0  0  0  0  0  0  0
   -0.9158   -4.2989    2.6188 C   0  0  0  0  0  0  0  0  0  0  0  0
   -1.8772   -3.9054    1.6857 C   0  0  0  0  0  0  0  0  0  0  0  0
   -1.8926   -2.5924    1.2053 C   0  0  0  0  0  0  0  0  0  0  0  0
    0.0538    0.7194    1.3695 C   0  0  0  0  0  0  0  0  0  0  0  0
    1.3857    0.3156    0.7700 C   0  0  0  0  0  0  0  0  0  0  0  0
    2.5696    0.5195    1.4965 C   0  0  0  0  0  0  0  0  0  0  0  0
    3.8067    0.1617    0.9549 C   0  0  0  0  0  0  0  0  0  0  0  0
    3.8803   -0.3981   -0.3280 C   0  0  0  0  0  0  0  0  0  0  0  0
    5.1182   -0.7620   -0.8807 C   0  0  0  0  0  0  0  0  0  0  0  0
    5.1782   -1.3163   -2.1626 C   0  0  0  0  0  0  0  0  0  0  0  0
    4.0075   -1.5104   -2.9005 C   0  0  0  0  0  0  0  0  0  0  0  0
    2.7685   -1.1519   -2.3616 C   0  0  0  0  0  0  0  0  0  0  0  0
    2.6942   -0.5954   -1.0751 C   0  0  0  0  0  0  0  0  0  0  0  0
    1.4568   -0.2327   -0.5236 C   0  0  0  0  0  0  0  0  0  0  0  0
   -0.5321    1.9616    0.6691 C   0  0  0  0  0  0  0  0  0  0  0  0
   -2.5337    3.5948   -0.9739 C   0  0  0  0  0  0  0  0  0  0  0  0
   -3.4420    4.3400   -1.7321 C   0  0  0  0  0  0  0  0  0  0  0  0
   -5.7523    1.9213   -2.3475 H   0  0  0  0  0  0  0  0  0  0  0  0
   -4.1679    0.5976   -1.0181 H   0  0  0  0  0  0  0  0  0  0  0  0
    0.7599   -1.3730    2.9746 H   0  0  0  0  0  0  0  0  0  0  0  0
    0.7742   -3.6848    3.8000 H   0  0  0  0  0  0  0  0  0  0  0  0
   -0.9054   -5.3158    2.9894 H   0  0  0  0  0  0  0  0  0  0  0  0
   -2.6109   -4.6186    1.3328 H   0  0  0  0  0  0  0  0  0  0  0  0
   -2.6431   -2.3109    0.4781 H   0  0  0  0  0  0  0  0  0  0  0  0
    0.1426    0.9157    2.4613 H   0  0  0  0  0  0  0  0  0  0  0  0
    2.5357    0.9532    2.4882 H   0  0  0  0  0  0  0  0  0  0  0  0
    4.7053    0.3237    1.5384 H   0  0  0  0  0  0  0  0  0  0  0  0
    6.0361   -0.6179   -0.3233 H   0  0  0  0  0  0  0  0  0  0  0  0
    6.1347   -1.5957   -2.5853 H   0  0  0  0  0  0  0  0  0  0  0  0
    4.0604   -1.9397   -3.8927 H   0  0  0  0  0  0  0  0  0  0  0  0
    1.8713   -1.3099   -2.9482 H   0  0  0  0  0  0  0  0  0  0  0  0
    0.5482   -0.3761   -1.0971 H   0  0  0  0  0  0  0  0  0  0  0  0
   -0.7415    2.7663    1.4064 H   0  0  0  0  0  0  0  0  0  0  0  0
    0.1212    2.3482   -0.1438 H   0  0  0  0  0  0  0  0  0  0  0  0
   -1.6442    4.0861   -0.6020 H   0  0  0  0  0  0  0  0  0  0  0  0
   -3.2427    5.3848   -1.9335 H   0  0  0  0  0  0  0  0  0  0  0  0
  1  2  1  0
  2  3  2  0
  3  4  1  0
  4  5  2  0
  5  6  1  0
  6  7  2  0
  7  8  1  0
  8  9  1  0
  9 10  2  0
 10 11  1  0
 11 12  2  0
 12 13  1  0
 13 14  2  0
  8 15  1  0
 15 16  1  0
 16 17  2  0
 17 18  1  0
 18 19  2  0
 19 20  1  0
 20 21  2  0
 21 22  1  0
 22 23  2  0
 23 24  1  0
 24 25  2  0
 15 26  1  0
  5 27  1  0
 27 28  2  0
 28  2  1  0
 26  6  1  0
 14  9  1  0
 25 16  1  0
 24 19  1  0
  3 29  1  0
  4 30  1  0
 10 31  1  0
 11 32  1  0
 12 33  1  0
 13 34  1  0
 14 35  1  0
 15 36  1  0
 17 37  1  0
 18 38  1  0
 20 39  1  0
 21 40  1  0
 22 41  1  0
 23 42  1  0
 25 43  1  0
 26 44  1  0
 26 45  1  0
 27 46  1  0
 28 47  1  0
M  END
