
     RDKit          3D

 48 51  0  0  0  0  0  0  0  0999 V2000
    0.4720    5.6751   -1.0161 C   0  0  0  0  0  0  0  0  0  0  0  0
    0.8960    4.3235   -0.8734 O   0  0  0  0  0  0  0  0  0  0  0  0
    0.1041    3.2979   -0.3271 C   0  0  0  0  0  0  0  0  0  0  0  0
    0.6273    2.0026   -0.3054 C   0  0  0  0  0  0  0  0  0  0  0  0
   -0.1123    0.9202    0.2181 C   0  0  0  0  0  0  0  0  0  0  0  0
    0.3710   -0.4042    0.1817 O   0  0  0  0  0  0  0  0  0  0  0  0
    1.7021   -0.8758   -0.0649 C   0  0  0  0  0  0  0  0  0  0  0  0
    2.7237   -0.2911    0.9328 C   0  0  0  0  0  0  0  0  0  0  0  0
    4.1500   -0.8359    0.6791 C   0  0  0  0  0  0  0  0  0  0  0  0
    4.3881   -1.2800   -0.7112 N   0  0  0  0  0  0  0  0  0  0  0  0
    3.6360   -0.4811   -1.6887 C   0  0  0  0  0  0  0  0  0  0  0  0
    2.1212   -0.7215   -1.5471 C   0  0  0  0  0  0  0  0  0  0  0  0
   -1.3978    1.1698    0.7684 C   0  0  0  0  0  0  0  0  0  0  0  0
   -2.2044    0.1652    1.3612 C   0  0  0  0  0  0  0  0  0  0  0  0
   -1.7222   -1.1709    1.5488 N   0  0  0  0  0  0  0  0  0  0  0  0
   -2.1735   -2.2899    0.7672 C   0  0  0  0  0  0  0  0  0  0  0  0
   -3.3132   -2.2115   -0.0497 C   0  0  0  0  0  0  0  0  0  0  0  0
   -3.7211   -3.3191   -0.7999 C   0  0  0  0  0  0  0  0  0  0  0  0
   -2.9877   -4.5103   -0.7501 C   0  0  0  0  0  0  0  0  0  0  0  0
   -3.3967   -5.5781   -1.4810 F   0  0  0  0  0  0  0  0  0  0  0  0
   -1.8424   -4.5927    0.0447 C   0  0  0  0  0  0  0  0  0  0  0  0
   -0.9031   -6.0732    0.0931 Cl  0  0  0  0  0  0  0  0  0  0  0  0
   -1.4406   -3.4881    0.8024 C   0  0  0  0  0  0  0  0  0  0  0  0
   -3.4393    0.4829    1.8313 N   0  0  0  0  0  0  0  0  0  0  0  0
   -3.9272    1.7445    1.7512 C   0  0  0  0  0  0  0  0  0  0  0  0
   -3.1721    2.7312    1.2112 N   0  0  0  0  0  0  0  0  0  0  0  0
   -1.9291    2.4808    0.7257 C   0  0  0  0  0  0  0  0  0  0  0  0
   -1.1830    3.5298    0.1829 C   0  0  0  0  0  0  0  0  0  0  0  0
    0.2204    6.1053   -0.0230 H   0  0  0  0  0  0  0  0  0  0  0  0
   -0.4107    5.7278   -1.6912 H   0  0  0  0  0  0  0  0  0  0  0  0
    1.2976    6.2672   -1.4585 H   0  0  0  0  0  0  0  0  0  0  0  0
    1.6120    1.8612   -0.7258 H   0  0  0  0  0  0  0  0  0  0  0  0
    1.6778   -1.9702    0.1404 H   0  0  0  0  0  0  0  0  0  0  0  0
    2.7569    0.8141    0.8673 H   0  0  0  0  0  0  0  0  0  0  0  0
    2.4065   -0.5445    1.9695 H   0  0  0  0  0  0  0  0  0  0  0  0
    4.8917   -0.0479    0.9328 H   0  0  0  0  0  0  0  0  0  0  0  0
    4.3395   -1.6874    1.3678 H   0  0  0  0  0  0  0  0  0  0  0  0
    4.1031   -2.2854   -0.8059 H   0  0  0  0  0  0  0  0  0  0  0  0
    3.8658    0.5990   -1.5471 H   0  0  0  0  0  0  0  0  0  0  0  0
    3.9597   -0.7563   -2.7175 H   0  0  0  0  0  0  0  0  0  0  0  0
    1.5667    0.0919   -2.0575 H   0  0  0  0  0  0  0  0  0  0  0  0
    1.8539   -1.6553   -2.0910 H   0  0  0  0  0  0  0  0  0  0  0  0
   -0.9004   -1.2967    2.1834 H   0  0  0  0  0  0  0  0  0  0  0  0
   -3.8914   -1.3032   -0.1094 H   0  0  0  0  0  0  0  0  0  0  0  0
   -4.6066   -3.2470   -1.4358 H   0  0  0  0  0  0  0  0  0  0  0  0
   -0.5432   -3.5626    1.4199 H   0  0  0  0  0  0  0  0  0  0  0  0
   -4.9138    1.9671    2.1318 H   0  0  0  0  0  0  0  0  0  0  0  0
   -1.6112    4.5227    0.1646 H   0  0  0  0  0  0  0  0  0  0  0  0
  1  2  1  0
  2  3  1  0
  3  4  2  0
  4  5  1  0
  5  6  1  0
  6  7  1  0
  7  8  1  0
  8  9  1  0
  9 10  1  0
 10 11  1  0
 11 12  1  0
  5 13  2  0
 13 14  1  0
 14 15  1  0
 15 16  1  0
 16 17  2  0
 17 18  1  0
 18 19  2  0
 19 20  1  0
 19 21  1  0
 21 22  1  0
 21 23  2  0
 14 24  2  0
 24 25  1  0
 25 26  2  0
 26 27  1  0
 27 28  2  0
 28  3  1  0
 12  7  1  0
 27 13  1  0
 23 16  1  0
  1 29  1  0
  1 30  1  0
  1 31  1  0
  4 32  1  0
  7 33  1  0
  8 34  1  0
  8 35  1  0
  9 36  1  0
  9 37  1  0
 10 38  1  0
 11 39  1  0
 11 40  1  0
 12 41  1  0
 12 42  1  0
 15 43  1  0
 17 44  1  0
 18 45  1  0
 23 46  1  0
 25 47  1  0
 28 48  1  0
M  END
