
     RDKit          3D

 40 43  0  0  0  0  0  0  0  0999 V2000
    2.8383   -4.7564   -1.8408 Cl  0  0  0  0  0  0  0  0  0  0  0  0
    2.9538   -3.3325   -0.8225 C   0  0  0  0  0  0  0  0  0  0  0  0
    3.7686   -3.3509    0.3141 C   0  0  0  0  0  0  0  0  0  0  0  0
    3.8561   -2.2198    1.1297 C   0  0  0  0  0  0  0  0  0  0  0  0
    3.1363   -1.0653    0.8081 C   0  0  0  0  0  0  0  0  0  0  0  0
    2.3295   -1.0300   -0.3450 C   0  0  0  0  0  0  0  0  0  0  0  0
    1.5599    0.1363   -0.6856 N   0  0  0  0  0  0  0  0  0  0  0  0
    1.9092    1.4687   -0.2824 C   0  0  0  0  0  0  0  0  0  0  0  0
    3.2137    1.8961   -0.3015 N   0  0  0  0  0  0  0  0  0  0  0  0
    3.5652    3.1940   -0.0104 C   0  0  0  0  0  0  0  0  0  0  0  0
    2.6189    4.1333    0.2923 N   0  0  0  0  0  0  0  0  0  0  0  0
    1.3260    3.7469    0.3094 C   0  0  0  0  0  0  0  0  0  0  0  0
    0.2551    4.5098    0.5766 N   0  0  0  0  0  0  0  0  0  0  0  0
   -0.8149    3.7209    0.5009 N   0  0  0  0  0  0  0  0  0  0  0  0
   -0.4344    2.4554    0.1833 C   0  0  0  0  0  0  0  0  0  0  0  0
   -1.3374    1.3473    0.1114 N   0  0  0  0  0  0  0  0  0  0  0  0
   -2.7834    1.5584    0.0467 C   0  0  0  0  0  0  0  0  0  0  0  0
   -3.5096    0.2443   -0.0660 C   0  0  0  0  0  0  0  0  0  0  0  0
   -3.4417   -0.4952   -1.2587 C   0  0  0  0  0  0  0  0  0  0  0  0
   -4.0953   -1.7270   -1.3620 C   0  0  0  0  0  0  0  0  0  0  0  0
   -4.8193   -2.2293   -0.2769 C   0  0  0  0  0  0  0  0  0  0  0  0
   -4.8870   -1.5024    0.9150 C   0  0  0  0  0  0  0  0  0  0  0  0
   -4.2318   -0.2715    1.0239 C   0  0  0  0  0  0  0  0  0  0  0  0
    0.9371    2.4094    0.0375 C   0  0  0  0  0  0  0  0  0  0  0  0
    2.2324   -2.1783   -1.1469 C   0  0  0  0  0  0  0  0  0  0  0  0
    4.3291   -4.2412    0.5699 H   0  0  0  0  0  0  0  0  0  0  0  0
    4.4766   -2.2397    2.0170 H   0  0  0  0  0  0  0  0  0  0  0  0
    3.1965   -0.2088    1.4670 H   0  0  0  0  0  0  0  0  0  0  0  0
    0.7426    0.0224   -1.3277 H   0  0  0  0  0  0  0  0  0  0  0  0
    3.9713    1.2305   -0.5742 H   0  0  0  0  0  0  0  0  0  0  0  0
    4.6076    3.4848   -0.0382 H   0  0  0  0  0  0  0  0  0  0  0  0
   -0.9544    0.3761    0.1427 H   0  0  0  0  0  0  0  0  0  0  0  0
   -3.1164    2.1144    0.9507 H   0  0  0  0  0  0  0  0  0  0  0  0
   -3.0238    2.1825   -0.8420 H   0  0  0  0  0  0  0  0  0  0  0  0
   -2.8739   -0.1222   -2.1030 H   0  0  0  0  0  0  0  0  0  0  0  0
   -4.0408   -2.2927   -2.2827 H   0  0  0  0  0  0  0  0  0  0  0  0
   -5.3264   -3.1820   -0.3590 H   0  0  0  0  0  0  0  0  0  0  0  0
   -5.4486   -1.8915    1.7549 H   0  0  0  0  0  0  0  0  0  0  0  0
   -4.2865    0.2771    1.9559 H   0  0  0  0  0  0  0  0  0  0  0  0
    1.6018   -2.1720   -2.0281 H   0  0  0  0  0  0  0  0  0  0  0  0
  1  2  1  0
  2  3  2  0
  3  4  1  0
  4  5  2  0
  5  6  1  0
  6  7  1  0
  7  8  1  0
  8  9  1  0
  9 10  1  0
 10 11  2  0
 11 12  1  0
 12 13  2  0
 13 14  1  0
 14 15  2  0
 15 16  1  0
 16 17  1  0
 17 18  1  0
 18 19  2  0
 19 20  1  0
 20 21  2  0
 21 22  1  0
 22 23  2  0
 15 24  1  0
  6 25  2  0
 25  2  1  0
 24  8  2  0
 24 12  1  0
 23 18  1  0
  3 26  1  0
  4 27  1  0
  5 28  1  0
  7 29  1  0
  9 30  1  0
 10 31  1  0
 16 32  1  0
 17 33  1  0
 17 34  1  0
 19 35  1  0
 20 36  1  0
 21 37  1  0
 22 38  1  0
 23 39  1  0
 25 40  1  0
M  END
