
     RDKit          3D

 67 69  0  0  0  0  0  0  0  0999 V2000
   -1.3077   -4.2836   -3.6609 C   0  0  0  0  0  0  0  0  0  0  0  0
   -2.1129   -3.3819   -3.1013 C   0  0  0  0  0  0  0  0  0  0  0  0
   -1.7693   -2.6818   -1.8500 C   0  0  0  0  0  0  0  0  0  0  0  0
   -0.7223   -2.9879   -1.2174 O   0  0  0  0  0  0  0  0  0  0  0  0
   -2.6586   -1.6807   -1.3335 N   0  0  0  0  0  0  0  0  0  0  0  0
   -2.3197   -0.8096   -0.2399 C   0  0  0  0  0  0  0  0  0  0  0  0
   -1.0412   -0.2343   -0.1706 C   0  0  0  0  0  0  0  0  0  0  0  0
   -0.6959    0.6393    0.8719 C   0  0  0  0  0  0  0  0  0  0  0  0
    0.6203    1.2158    0.9366 N   0  0  0  0  0  0  0  0  0  0  0  0
    1.8262    0.4713    0.7103 C   0  0  0  0  0  0  0  0  0  0  0  0
    1.7911   -0.8774    0.5336 N   0  0  0  0  0  0  0  0  0  0  0  0
    2.9314   -1.5903    0.3493 C   0  0  0  0  0  0  0  0  0  0  0  0
    4.1654   -0.9429    0.3528 C   0  0  0  0  0  0  0  0  0  0  0  0
    4.1944    0.4480    0.5354 C   0  0  0  0  0  0  0  0  0  0  0  0
    5.4311    1.1763    0.6067 N   0  0  0  0  0  0  0  0  0  0  0  0
    6.6527    0.7584   -0.0258 C   0  0  0  0  0  0  0  0  0  0  0  0
    6.6061    0.0199   -1.0480 O   0  0  0  0  0  0  0  0  0  0  0  0
    7.9675    1.2228    0.4805 C   0  0  0  0  0  0  0  0  0  0  0  0
    9.1132    1.1278   -0.3326 C   0  0  0  0  0  0  0  0  0  0  0  0
   10.3573    1.5532    0.1432 C   0  0  0  0  0  0  0  0  0  0  0  0
   10.4747    2.0705    1.4353 C   0  0  0  0  0  0  0  0  0  0  0  0
    9.3486    2.1590    2.2558 C   0  0  0  0  0  0  0  0  0  0  0  0
    8.1011    1.7371    1.7851 C   0  0  0  0  0  0  0  0  0  0  0  0
    3.0239    1.1152    0.7240 N   0  0  0  0  0  0  0  0  0  0  0  0
   -1.6573    0.9870    1.8346 C   0  0  0  0  0  0  0  0  0  0  0  0
   -1.2959    1.8802    2.8567 O   0  0  0  0  0  0  0  0  0  0  0  0
   -2.1621    2.3044    3.9041 C   0  0  0  0  0  0  0  0  0  0  0  0
   -2.9449    0.4255    1.7594 C   0  0  0  0  0  0  0  0  0  0  0  0
   -3.2850   -0.4675    0.7317 C   0  0  0  0  0  0  0  0  0  0  0  0
   -4.5999   -1.0582    0.7181 N   0  0  0  0  0  0  0  0  0  0  0  0
   -4.7555   -2.5147    0.7393 C   0  0  0  0  0  0  0  0  0  0  0  0
   -5.7993   -0.2082    0.6999 C   0  0  0  0  0  0  0  0  0  0  0  0
   -6.3744   -0.0850   -0.7173 C   0  0  0  0  0  0  0  0  0  0  0  0
   -5.3626    0.4060   -1.6786 N   0  0  0  0  0  0  0  0  0  0  0  0
   -5.1664    1.8604   -1.5512 C   0  0  0  0  0  0  0  0  0  0  0  0
   -5.7814    0.0855   -3.0537 C   0  0  0  0  0  0  0  0  0  0  0  0
   -1.6023   -4.7718   -4.5814 H   0  0  0  0  0  0  0  0  0  0  0  0
   -0.3533   -4.5421   -3.2188 H   0  0  0  0  0  0  0  0  0  0  0  0
   -3.0554   -3.1536   -3.5862 H   0  0  0  0  0  0  0  0  0  0  0  0
   -3.6199   -1.6277   -1.7361 H   0  0  0  0  0  0  0  0  0  0  0  0
   -0.3230   -0.4379   -0.9535 H   0  0  0  0  0  0  0  0  0  0  0  0
    0.7168    2.2012    1.2717 H   0  0  0  0  0  0  0  0  0  0  0  0
    2.8805   -2.6626    0.2175 H   0  0  0  0  0  0  0  0  0  0  0  0
    5.0730   -1.5218    0.2489 H   0  0  0  0  0  0  0  0  0  0  0  0
    5.4119    2.1108    1.0737 H   0  0  0  0  0  0  0  0  0  0  0  0
    9.0473    0.7301   -1.3379 H   0  0  0  0  0  0  0  0  0  0  0  0
   11.2312    1.4830   -0.4909 H   0  0  0  0  0  0  0  0  0  0  0  0
   11.4377    2.4001    1.8022 H   0  0  0  0  0  0  0  0  0  0  0  0
    9.4412    2.5511    3.2601 H   0  0  0  0  0  0  0  0  0  0  0  0
    7.2512    1.7955    2.4525 H   0  0  0  0  0  0  0  0  0  0  0  0
   -2.4756    1.4328    4.5150 H   0  0  0  0  0  0  0  0  0  0  0  0
   -1.6204    3.0187    4.5569 H   0  0  0  0  0  0  0  0  0  0  0  0
   -3.0507    2.8164    3.4805 H   0  0  0  0  0  0  0  0  0  0  0  0
   -3.6853    0.6575    2.5125 H   0  0  0  0  0  0  0  0  0  0  0  0
   -5.1844   -2.8631   -0.2237 H   0  0  0  0  0  0  0  0  0  0  0  0
   -5.4339   -2.8095    1.5674 H   0  0  0  0  0  0  0  0  0  0  0  0
   -3.7780   -3.0193    0.9004 H   0  0  0  0  0  0  0  0  0  0  0  0
   -5.5808    0.7997    1.1087 H   0  0  0  0  0  0  0  0  0  0  0  0
   -6.5768   -0.6470    1.3643 H   0  0  0  0  0  0  0  0  0  0  0  0
   -6.7341   -1.0961   -1.0129 H   0  0  0  0  0  0  0  0  0  0  0  0
   -7.2680    0.5801   -0.6997 H   0  0  0  0  0  0  0  0  0  0  0  0
   -6.1230    2.4129   -1.6856 H   0  0  0  0  0  0  0  0  0  0  0  0
   -4.7368    2.1084   -0.5599 H   0  0  0  0  0  0  0  0  0  0  0  0
   -4.4377    2.2197   -2.3111 H   0  0  0  0  0  0  0  0  0  0  0  0
   -5.8443   -1.0152   -3.1865 H   0  0  0  0  0  0  0  0  0  0  0  0
   -5.0295    0.4530   -3.7841 H   0  0  0  0  0  0  0  0  0  0  0  0
   -6.7709    0.5373   -3.2908 H   0  0  0  0  0  0  0  0  0  0  0  0
  1  2  2  0
  2  3  1  0
  3  4  2  0
  3  5  1  0
  5  6  1  0
  6  7  2  0
  7  8  1  0
  8  9  1  0
  9 10  1  0
 10 11  2  0
 11 12  1  0
 12 13  2  0
 13 14  1  0
 14 15  1  0
 15 16  1  0
 16 17  2  0
 16 18  1  0
 18 19  2  0
 19 20  1  0
 20 21  2  0
 21 22  1  0
 22 23  2  0
 14 24  2  0
  8 25  2  0
 25 26  1  0
 26 27  1  0
 25 28  1  0
 28 29  2  0
 29 30  1  0
 30 31  1  0
 30 32  1  0
 32 33  1  0
 33 34  1  0
 34 35  1  0
 34 36  1  0
 29  6  1  0
 24 10  1  0
 23 18  1  0
  1 37  1  0
  1 38  1  0
  2 39  1  0
  5 40  1  0
  7 41  1  0
  9 42  1  0
 12 43  1  0
 13 44  1  0
 15 45  1  0
 19 46  1  0
 20 47  1  0
 21 48  1  0
 22 49  1  0
 23 50  1  0
 27 51  1  0
 27 52  1  0
 27 53  1  0
 28 54  1  0
 31 55  1  0
 31 56  1  0
 31 57  1  0
 32 58  1  0
 32 59  1  0
 33 60  1  0
 33 61  1  0
 35 62  1  0
 35 63  1  0
 35 64  1  0
 36 65  1  0
 36 66  1  0
 36 67  1  0
M  END
