
     RDKit          3D

 82 86  0  0  0  0  0  0  0  0999 V2000
   -8.1706    1.1056   -4.6134 C   0  0  0  0  0  0  0  0  0  0  0  0
   -8.7454    0.7874   -3.4581 C   0  0  0  0  0  0  0  0  0  0  0  0
   -8.1692    1.1400   -2.1490 C   0  0  0  0  0  0  0  0  0  0  0  0
   -8.6086    0.5553   -1.1207 O   0  0  0  0  0  0  0  0  0  0  0  0
   -7.1478    2.1439   -2.0217 N   0  0  0  0  0  0  0  0  0  0  0  0
   -6.2431    2.2140   -0.9058 C   0  0  0  0  0  0  0  0  0  0  0  0
   -5.7440    3.4581   -0.4918 C   0  0  0  0  0  0  0  0  0  0  0  0
   -4.8554    3.5408    0.5851 C   0  0  0  0  0  0  0  0  0  0  0  0
   -4.4363    2.3797    1.2415 C   0  0  0  0  0  0  0  0  0  0  0  0
   -4.9038    1.1252    0.8215 C   0  0  0  0  0  0  0  0  0  0  0  0
   -4.4695   -0.0794    1.4864 N   0  0  0  0  0  0  0  0  0  0  0  0
   -5.3830   -0.8536    2.1574 C   0  0  0  0  0  0  0  0  0  0  0  0
   -6.5880   -0.4767    2.2260 O   0  0  0  0  0  0  0  0  0  0  0  0
   -5.0027   -2.0298    2.7559 N   0  0  0  0  0  0  0  0  0  0  0  0
   -6.0114   -2.8689    3.4331 C   0  0  0  0  0  0  0  0  0  0  0  0
   -6.6820   -3.8070    2.4261 C   0  0  0  0  0  0  0  0  0  0  0  0
   -7.7285   -4.6904    3.0993 C   0  0  0  0  0  0  0  0  0  0  0  0
   -3.7035   -2.4582    2.6627 C   0  0  0  0  0  0  0  0  0  0  0  0
   -3.3569   -3.5607    3.1747 O   0  0  0  0  0  0  0  0  0  0  0  0
   -2.7536   -1.6749    1.9956 C   0  0  0  0  0  0  0  0  0  0  0  0
   -1.4093   -2.0553    1.8676 C   0  0  0  0  0  0  0  0  0  0  0  0
   -0.5385   -1.2532    1.2040 N   0  0  0  0  0  0  0  0  0  0  0  0
   -0.9398   -0.0698    0.6653 C   0  0  0  0  0  0  0  0  0  0  0  0
   -0.0136    0.7740   -0.0330 N   0  0  0  0  0  0  0  0  0  0  0  0
    1.4198    0.6286    0.0130 C   0  0  0  0  0  0  0  0  0  0  0  0
    2.0650    0.1851    1.1823 C   0  0  0  0  0  0  0  0  0  0  0  0
    3.4537    0.0592    1.2235 C   0  0  0  0  0  0  0  0  0  0  0  0
    4.2299    0.4164    0.1154 C   0  0  0  0  0  0  0  0  0  0  0  0
    5.6632    0.3140    0.1715 N   0  0  0  0  0  0  0  0  0  0  0  0
    6.2980   -0.9099    0.6786 C   0  0  0  0  0  0  0  0  0  0  0  0
    7.6134   -1.1557   -0.0718 C   0  0  0  0  0  0  0  0  0  0  0  0
    8.6014    0.0581   -0.0583 C   0  0  0  0  0  0  0  0  0  0  0  0
    9.2157    0.2269   -1.4138 N   0  0  0  0  0  0  0  0  0  0  0  0
   10.0151    1.4622   -1.5391 C   0  0  0  0  0  0  0  0  0  0  0  0
   10.0897   -0.9226   -1.7353 C   0  0  0  0  0  0  0  0  0  0  0  0
    7.8862    1.3435    0.4642 C   0  0  0  0  0  0  0  0  0  0  0  0
    6.4850    1.4951   -0.1379 C   0  0  0  0  0  0  0  0  0  0  0  0
    3.5988    0.8956   -1.0408 C   0  0  0  0  0  0  0  0  0  0  0  0
    2.1939    1.0006   -1.1032 C   0  0  0  0  0  0  0  0  0  0  0  0
    1.5377    1.4649   -2.2546 O   0  0  0  0  0  0  0  0  0  0  0  0
    2.1990    1.8968   -3.4399 C   0  0  0  0  0  0  0  0  0  0  0  0
   -2.2427    0.3013    0.7609 N   0  0  0  0  0  0  0  0  0  0  0  0
   -3.1604   -0.4656    1.4144 C   0  0  0  0  0  0  0  0  0  0  0  0
   -5.8034    1.0495   -0.2546 C   0  0  0  0  0  0  0  0  0  0  0  0
   -8.6225    0.7900   -5.5436 H   0  0  0  0  0  0  0  0  0  0  0  0
   -7.2371    1.6467   -4.6597 H   0  0  0  0  0  0  0  0  0  0  0  0
   -9.6533    0.1980   -3.4778 H   0  0  0  0  0  0  0  0  0  0  0  0
   -7.1137    2.9113   -2.7351 H   0  0  0  0  0  0  0  0  0  0  0  0
   -6.0521    4.3633   -0.9970 H   0  0  0  0  0  0  0  0  0  0  0  0
   -4.4869    4.5053    0.9093 H   0  0  0  0  0  0  0  0  0  0  0  0
   -3.7462    2.4549    2.0726 H   0  0  0  0  0  0  0  0  0  0  0  0
   -5.5445   -3.4669    4.2459 H   0  0  0  0  0  0  0  0  0  0  0  0
   -6.7804   -2.2344    3.9293 H   0  0  0  0  0  0  0  0  0  0  0  0
   -7.1713   -3.2094    1.6299 H   0  0  0  0  0  0  0  0  0  0  0  0
   -5.9127   -4.4529    1.9505 H   0  0  0  0  0  0  0  0  0  0  0  0
   -8.1996   -5.3526    2.3421 H   0  0  0  0  0  0  0  0  0  0  0  0
   -8.5223   -4.0644    3.5589 H   0  0  0  0  0  0  0  0  0  0  0  0
   -7.2579   -5.3214    3.8835 H   0  0  0  0  0  0  0  0  0  0  0  0
   -1.0488   -2.9878    2.2843 H   0  0  0  0  0  0  0  0  0  0  0  0
   -0.4181    1.5232   -0.6362 H   0  0  0  0  0  0  0  0  0  0  0  0
    1.5003   -0.0349    2.0792 H   0  0  0  0  0  0  0  0  0  0  0  0
    3.9280   -0.2834    2.1340 H   0  0  0  0  0  0  0  0  0  0  0  0
    5.6265   -1.7838    0.5202 H   0  0  0  0  0  0  0  0  0  0  0  0
    6.4876   -0.8090    1.7705 H   0  0  0  0  0  0  0  0  0  0  0  0
    7.3368   -1.4006   -1.1211 H   0  0  0  0  0  0  0  0  0  0  0  0
    8.1145   -2.0486    0.3586 H   0  0  0  0  0  0  0  0  0  0  0  0
    9.4087   -0.1669    0.6805 H   0  0  0  0  0  0  0  0  0  0  0  0
   10.6637    1.6122   -0.6481 H   0  0  0  0  0  0  0  0  0  0  0  0
   10.6614    1.4381   -2.4426 H   0  0  0  0  0  0  0  0  0  0  0  0
    9.3461    2.3361   -1.6917 H   0  0  0  0  0  0  0  0  0  0  0  0
    9.5204   -1.8770   -1.7385 H   0  0  0  0  0  0  0  0  0  0  0  0
   10.5099   -0.8159   -2.7607 H   0  0  0  0  0  0  0  0  0  0  0  0
   10.9305   -1.0051   -1.0080 H   0  0  0  0  0  0  0  0  0  0  0  0
    8.4675    2.2755    0.3182 H   0  0  0  0  0  0  0  0  0  0  0  0
    7.7793    1.2582    1.5701 H   0  0  0  0  0  0  0  0  0  0  0  0
    6.0119    2.4052    0.2964 H   0  0  0  0  0  0  0  0  0  0  0  0
    6.5573    1.6229   -1.2431 H   0  0  0  0  0  0  0  0  0  0  0  0
    4.2066    1.1695   -1.8904 H   0  0  0  0  0  0  0  0  0  0  0  0
    1.4433    2.2161   -4.1841 H   0  0  0  0  0  0  0  0  0  0  0  0
    2.8608    2.7594   -3.2178 H   0  0  0  0  0  0  0  0  0  0  0  0
    2.7890    1.0610   -3.8687 H   0  0  0  0  0  0  0  0  0  0  0  0
   -6.1373    0.0781   -0.5938 H   0  0  0  0  0  0  0  0  0  0  0  0
  1  2  2  0
  2  3  1  0
  3  4  2  0
  3  5  1  0
  5  6  1  0
  6  7  2  0
  7  8  1  0
  8  9  2  0
  9 10  1  0
 10 11  1  0
 11 12  1  0
 12 13  2  0
 12 14  1  0
 14 15  1  0
 15 16  1  0
 16 17  1  0
 14 18  1  0
 18 19  2  0
 18 20  1  0
 20 21  2  0
 21 22  1  0
 22 23  2  0
 23 24  1  0
 24 25  1  0
 25 26  2  0
 26 27  1  0
 27 28  2  0
 28 29  1  0
 29 30  1  0
 30 31  1  0
 31 32  1  0
 32 33  1  0
 33 34  1  0
 33 35  1  0
 32 36  1  0
 36 37  1  0
 28 38  1  0
 38 39  2  0
 39 40  1  0
 40 41  1  0
 23 42  1  0
 42 43  2  0
 10 44  2  0
 44  6  1  0
 43 11  1  0
 43 20  1  0
 39 25  1  0
 37 29  1  0
  1 45  1  0
  1 46  1  0
  2 47  1  0
  5 48  1  0
  7 49  1  0
  8 50  1  0
  9 51  1  0
 15 52  1  0
 15 53  1  0
 16 54  1  0
 16 55  1  0
 17 56  1  0
 17 57  1  0
 17 58  1  0
 21 59  1  0
 24 60  1  0
 26 61  1  0
 27 62  1  0
 30 63  1  0
 30 64  1  0
 31 65  1  0
 31 66  1  0
 32 67  1  0
 34 68  1  0
 34 69  1  0
 34 70  1  0
 35 71  1  0
 35 72  1  0
 35 73  1  0
 36 74  1  0
 36 75  1  0
 37 76  1  0
 37 77  1  0
 38 78  1  0
 41 79  1  0
 41 80  1  0
 41 81  1  0
 44 82  1  0
M  END
