
     RDKit          3D

 52 56  0  0  0  0  0  0  0  0999 V2000
    1.5841   -1.2485    3.6769 C   0  0  0  0  0  0  0  0  0  0  0  0
    0.7684   -0.9846    2.5401 O   0  0  0  0  0  0  0  0  0  0  0  0
    1.2438   -0.5022    1.3090 C   0  0  0  0  0  0  0  0  0  0  0  0
    2.6121   -0.2430    1.0916 C   0  0  0  0  0  0  0  0  0  0  0  0
    3.0668    0.2365   -0.1491 C   0  0  0  0  0  0  0  0  0  0  0  0
    4.5072    0.4939   -0.3875 C   0  0  0  0  0  0  0  0  0  0  0  0
    4.9848    1.0352   -1.5388 N   0  0  0  0  0  0  0  0  0  0  0  0
    6.3377    1.1482   -1.5120 C   0  0  0  0  0  0  0  0  0  0  0  0
    7.1084    1.6653   -2.5561 C   0  0  0  0  0  0  0  0  0  0  0  0
    8.5053    1.7151   -2.4035 C   0  0  0  0  0  0  0  0  0  0  0  0
    9.1113    1.2516   -1.2187 C   0  0  0  0  0  0  0  0  0  0  0  0
    8.3253    0.7365   -0.1749 C   0  0  0  0  0  0  0  0  0  0  0  0
    6.9445    0.6985   -0.3508 C   0  0  0  0  0  0  0  0  0  0  0  0
    5.7642    0.1364    0.6998 S   0  0  0  0  0  0  0  0  0  0  0  0
    2.1333    0.4691   -1.1707 C   0  0  0  0  0  0  0  0  0  0  0  0
    0.7777    0.2141   -0.9646 C   0  0  0  0  0  0  0  0  0  0  0  0
    0.3232   -0.2859    0.2659 C   0  0  0  0  0  0  0  0  0  0  0  0
   -1.0778   -0.5373    0.4788 N   0  0  0  0  0  0  0  0  0  0  0  0
   -1.9509   -1.0242   -0.5556 C   0  0  0  0  0  0  0  0  0  0  0  0
   -1.4348   -1.8065   -1.5442 N   0  0  0  0  0  0  0  0  0  0  0  0
   -2.2173   -2.3357   -2.5171 C   0  0  0  0  0  0  0  0  0  0  0  0
   -3.5532   -2.1032   -2.5172 N   0  0  0  0  0  0  0  0  0  0  0  0
   -4.1309   -1.3348   -1.5584 C   0  0  0  0  0  0  0  0  0  0  0  0
   -5.5104   -1.1135   -1.5879 C   0  0  0  0  0  0  0  0  0  0  0  0
   -6.1254   -0.3054   -0.6133 C   0  0  0  0  0  0  0  0  0  0  0  0
   -7.5102   -0.0723   -0.6053 O   0  0  0  0  0  0  0  0  0  0  0  0
   -8.4235   -0.5963   -1.5652 C   0  0  0  0  0  0  0  0  0  0  0  0
   -5.3441    0.2964    0.3847 C   0  0  0  0  0  0  0  0  0  0  0  0
   -5.9880    1.1151    1.3268 O   0  0  0  0  0  0  0  0  0  0  0  0
   -5.3250    1.8357    2.3599 C   0  0  0  0  0  0  0  0  0  0  0  0
   -3.9528    0.0715    0.4156 C   0  0  0  0  0  0  0  0  0  0  0  0
   -3.3393   -0.7578   -0.5422 C   0  0  0  0  0  0  0  0  0  0  0  0
    2.3363   -2.0289    3.4348 H   0  0  0  0  0  0  0  0  0  0  0  0
    0.9439   -1.6171    4.5045 H   0  0  0  0  0  0  0  0  0  0  0  0
    2.0902   -0.3171    4.0080 H   0  0  0  0  0  0  0  0  0  0  0  0
    3.3224   -0.4142    1.8874 H   0  0  0  0  0  0  0  0  0  0  0  0
    6.6420    2.0198   -3.4675 H   0  0  0  0  0  0  0  0  0  0  0  0
    9.1197    2.1081   -3.2022 H   0  0  0  0  0  0  0  0  0  0  0  0
   10.1877    1.2913   -1.1126 H   0  0  0  0  0  0  0  0  0  0  0  0
    8.7808    0.3744    0.7376 H   0  0  0  0  0  0  0  0  0  0  0  0
    2.4497    0.8487   -2.1338 H   0  0  0  0  0  0  0  0  0  0  0  0
    0.0792    0.4225   -1.7648 H   0  0  0  0  0  0  0  0  0  0  0  0
   -1.4432   -0.4882    1.4569 H   0  0  0  0  0  0  0  0  0  0  0  0
   -1.7758   -2.9510   -3.2893 H   0  0  0  0  0  0  0  0  0  0  0  0
   -6.0952   -1.5736   -2.3737 H   0  0  0  0  0  0  0  0  0  0  0  0
   -8.3934   -1.7071   -1.5557 H   0  0  0  0  0  0  0  0  0  0  0  0
   -8.1709   -0.2155   -2.5791 H   0  0  0  0  0  0  0  0  0  0  0  0
   -9.4512   -0.2665   -1.3067 H   0  0  0  0  0  0  0  0  0  0  0  0
   -4.5988    2.5519    1.9192 H   0  0  0  0  0  0  0  0  0  0  0  0
   -6.0761    2.4039    2.9445 H   0  0  0  0  0  0  0  0  0  0  0  0
   -4.8035    1.1335    3.0413 H   0  0  0  0  0  0  0  0  0  0  0  0
   -3.3583    0.5571    1.1738 H   0  0  0  0  0  0  0  0  0  0  0  0
  1  2  1  0
  2  3  1  0
  3  4  2  0
  4  5  1  0
  5  6  1  0
  6  7  2  0
  7  8  1  0
  8  9  2  0
  9 10  1  0
 10 11  2  0
 11 12  1  0
 12 13  2  0
 13 14  1  0
  5 15  2  0
 15 16  1  0
 16 17  2  0
 17 18  1  0
 18 19  1  0
 19 20  2  0
 20 21  1  0
 21 22  2  0
 22 23  1  0
 23 24  2  0
 24 25  1  0
 25 26  1  0
 26 27  1  0
 25 28  2  0
 28 29  1  0
 29 30  1  0
 28 31  1  0
 31 32  2  0
 17  3  1  0
 32 19  1  0
 14  6  1  0
 32 23  1  0
 13  8  1  0
  1 33  1  0
  1 34  1  0
  1 35  1  0
  4 36  1  0
  9 37  1  0
 10 38  1  0
 11 39  1  0
 12 40  1  0
 15 41  1  0
 16 42  1  0
 18 43  1  0
 21 44  1  0
 24 45  1  0
 27 46  1  0
 27 47  1  0
 27 48  1  0
 30 49  1  0
 30 50  1  0
 30 51  1  0
 31 52  1  0
M  END
