
     RDKit          3D

 72 77  0  0  0  0  0  0  0  0999 V2000
    3.7790   -3.2030   -3.9852 C   0  0  0  0  0  0  0  0  0  0  0  0
    4.0346   -2.0369   -3.3951 C   0  0  0  0  0  0  0  0  0  0  0  0
    3.3309   -1.5872   -2.1813 C   0  0  0  0  0  0  0  0  0  0  0  0
    2.4909   -2.3415   -1.6186 O   0  0  0  0  0  0  0  0  0  0  0  0
    3.6265   -0.2941   -1.6316 N   0  0  0  0  0  0  0  0  0  0  0  0
    2.8804    0.3028   -0.5592 C   0  0  0  0  0  0  0  0  0  0  0  0
    1.4782    0.2563   -0.5718 C   0  0  0  0  0  0  0  0  0  0  0  0
    0.7225    0.9186    0.4095 C   0  0  0  0  0  0  0  0  0  0  0  0
   -0.7156    0.8495    0.4004 N   0  0  0  0  0  0  0  0  0  0  0  0
   -1.4597   -0.3415    0.1045 C   0  0  0  0  0  0  0  0  0  0  0  0
   -0.8303   -1.5361   -0.0700 N   0  0  0  0  0  0  0  0  0  0  0  0
   -1.5331   -2.6641   -0.3544 C   0  0  0  0  0  0  0  0  0  0  0  0
   -2.9213   -2.6125   -0.4590 C   0  0  0  0  0  0  0  0  0  0  0  0
   -3.5655   -1.3833   -0.2495 C   0  0  0  0  0  0  0  0  0  0  0  0
   -5.0389   -1.2676   -0.3143 C   0  0  0  0  0  0  0  0  0  0  0  0
   -5.9275   -2.1766   -0.9080 C   0  0  0  0  0  0  0  0  0  0  0  0
   -7.1978   -1.7450   -0.7464 N   0  0  0  0  0  0  0  0  0  0  0  0
   -7.1270   -0.6133   -0.0430 C   0  0  0  0  0  0  0  0  0  0  0  0
   -8.2242    0.1094    0.3953 C   0  0  0  0  0  0  0  0  0  0  0  0
   -7.9777    1.2540    1.1785 C   0  0  0  0  0  0  0  0  0  0  0  0
   -6.6459    1.6354    1.4740 C   0  0  0  0  0  0  0  0  0  0  0  0
   -5.5563    0.8671    1.0065 C   0  0  0  0  0  0  0  0  0  0  0  0
   -5.8374   -0.2667    0.2362 C   0  0  0  0  0  0  0  0  0  0  0  0
   -9.6014   -0.4404    0.1193 C   0  0  0  0  0  0  0  0  0  0  0  0
   -9.6046   -1.3673   -1.1241 C   0  0  0  0  0  0  0  0  0  0  0  0
   -8.4550   -2.4036   -1.0963 C   0  0  0  0  0  0  0  0  0  0  0  0
   -2.8148   -0.2815    0.0251 N   0  0  0  0  0  0  0  0  0  0  0  0
    1.3776    1.7063    1.3725 C   0  0  0  0  0  0  0  0  0  0  0  0
    0.6037    2.4079    2.3121 O   0  0  0  0  0  0  0  0  0  0  0  0
    1.1365    3.2501    3.3304 C   0  0  0  0  0  0  0  0  0  0  0  0
    2.7838    1.7621    1.3789 C   0  0  0  0  0  0  0  0  0  0  0  0
    3.5383    1.0452    0.4409 C   0  0  0  0  0  0  0  0  0  0  0  0
    4.9656    1.0402    0.5584 N   0  0  0  0  0  0  0  0  0  0  0  0
    6.0947    0.1218    0.2772 C   0  0  0  0  0  0  0  0  0  0  0  0
    7.1402    0.9476    0.9723 C   0  0  0  0  0  0  0  0  0  0  0  0
    8.1818    1.5996    0.1303 N   0  0  0  0  0  0  0  0  0  0  0  0
    7.7798    1.9912   -1.2388 C   0  0  0  0  0  0  0  0  0  0  0  0
    9.3828    0.7520    0.0776 C   0  0  0  0  0  0  0  0  0  0  0  0
    5.9767    1.8399    1.2813 C   0  0  0  0  0  0  0  0  0  0  0  0
    4.3195   -3.4874   -4.8778 H   0  0  0  0  0  0  0  0  0  0  0  0
    3.0241   -3.8798   -3.6030 H   0  0  0  0  0  0  0  0  0  0  0  0
    4.7982   -1.3959   -3.8214 H   0  0  0  0  0  0  0  0  0  0  0  0
    4.4006    0.2624   -2.0580 H   0  0  0  0  0  0  0  0  0  0  0  0
    0.9707   -0.2527   -1.3816 H   0  0  0  0  0  0  0  0  0  0  0  0
   -1.2568    1.6861    0.7124 H   0  0  0  0  0  0  0  0  0  0  0  0
   -1.0148   -3.6037   -0.4940 H   0  0  0  0  0  0  0  0  0  0  0  0
   -3.4735   -3.5187   -0.6722 H   0  0  0  0  0  0  0  0  0  0  0  0
   -5.6622   -3.0941   -1.4148 H   0  0  0  0  0  0  0  0  0  0  0  0
   -8.8048    1.8372    1.5672 H   0  0  0  0  0  0  0  0  0  0  0  0
   -6.4622    2.5130    2.0809 H   0  0  0  0  0  0  0  0  0  0  0  0
   -4.5444    1.1466    1.2619 H   0  0  0  0  0  0  0  0  0  0  0  0
  -10.3175    0.3943   -0.0441 H   0  0  0  0  0  0  0  0  0  0  0  0
   -9.9360   -1.0185    1.0069 H   0  0  0  0  0  0  0  0  0  0  0  0
   -9.4954   -0.7408   -2.0371 H   0  0  0  0  0  0  0  0  0  0  0  0
  -10.5788   -1.8964   -1.1896 H   0  0  0  0  0  0  0  0  0  0  0  0
   -8.6766   -3.1849   -0.3378 H   0  0  0  0  0  0  0  0  0  0  0  0
   -8.3664   -2.8854   -2.0938 H   0  0  0  0  0  0  0  0  0  0  0  0
    1.7725    2.6566    4.0210 H   0  0  0  0  0  0  0  0  0  0  0  0
    0.3008    3.6951    3.9105 H   0  0  0  0  0  0  0  0  0  0  0  0
    1.7305    4.0713    2.8767 H   0  0  0  0  0  0  0  0  0  0  0  0
    3.3025    2.3389    2.1308 H   0  0  0  0  0  0  0  0  0  0  0  0
    5.9316   -0.8521    0.7953 H   0  0  0  0  0  0  0  0  0  0  0  0
    6.2521   -0.0386   -0.8071 H   0  0  0  0  0  0  0  0  0  0  0  0
    7.5398    0.4693    1.8949 H   0  0  0  0  0  0  0  0  0  0  0  0
    8.4620    2.7895   -1.6025 H   0  0  0  0  0  0  0  0  0  0  0  0
    7.8348    1.1342   -1.9472 H   0  0  0  0  0  0  0  0  0  0  0  0
    6.7540    2.4148   -1.2648 H   0  0  0  0  0  0  0  0  0  0  0  0
    9.7864    0.5991    1.1028 H   0  0  0  0  0  0  0  0  0  0  0  0
    9.1539   -0.2387   -0.3752 H   0  0  0  0  0  0  0  0  0  0  0  0
   10.1819    1.2506   -0.5114 H   0  0  0  0  0  0  0  0  0  0  0  0
    5.7485    1.8665    2.3723 H   0  0  0  0  0  0  0  0  0  0  0  0
    6.0542    2.8677    0.8622 H   0  0  0  0  0  0  0  0  0  0  0  0
  1  2  2  0
  2  3  1  0
  3  4  2  0
  3  5  1  0
  5  6  1  0
  6  7  2  0
  7  8  1  0
  8  9  1  0
  9 10  1  0
 10 11  2  0
 11 12  1  0
 12 13  2  0
 13 14  1  0
 14 15  1  0
 15 16  2  0
 16 17  1  0
 17 18  1  0
 18 19  2  0
 19 20  1  0
 20 21  2  0
 21 22  1  0
 22 23  2  0
 19 24  1  0
 24 25  1  0
 25 26  1  0
 14 27  2  0
  8 28  2  0
 28 29  1  0
 29 30  1  0
 28 31  1  0
 31 32  2  0
 32 33  1  0
 33 34  1  0
 34 35  1  0
 35 36  1  0
 36 37  1  0
 36 38  1  0
 35 39  1  0
 32  6  1  0
 39 33  1  0
 27 10  1  0
 23 15  1  0
 26 17  1  0
 23 18  1  0
  1 40  1  0
  1 41  1  0
  2 42  1  0
  5 43  1  0
  7 44  1  0
  9 45  1  0
 12 46  1  0
 13 47  1  0
 16 48  1  0
 20 49  1  0
 21 50  1  0
 22 51  1  0
 24 52  1  0
 24 53  1  0
 25 54  1  0
 25 55  1  0
 26 56  1  0
 26 57  1  0
 30 58  1  0
 30 59  1  0
 30 60  1  0
 31 61  1  0
 34 62  1  0
 34 63  1  0
 35 64  1  0
 37 65  1  0
 37 66  1  0
 37 67  1  0
 38 68  1  0
 38 69  1  0
 38 70  1  0
 39 71  1  0
 39 72  1  0
M  END
