
     RDKit          3D

 47 51  0  0  0  0  0  0  0  0999 V2000
   -7.0083   -1.5465   -0.4663 C   0  0  0  0  0  0  0  0  0  0  0  0
   -5.7535   -0.8288   -0.2031 N   0  0  0  0  0  0  0  0  0  0  0  0
   -5.6122    0.3071   -1.1312 C   0  0  0  0  0  0  0  0  0  0  0  0
   -4.3432    1.0938   -0.7965 C   0  0  0  0  0  0  0  0  0  0  0  0
   -3.1793    0.2066   -0.7147 N   0  0  0  0  0  0  0  0  0  0  0  0
   -1.8664    0.7775   -0.5622 C   0  0  0  0  0  0  0  0  0  0  0  0
   -0.7542    0.0524   -0.9023 N   0  0  0  0  0  0  0  0  0  0  0  0
    0.5032    0.5563   -0.7628 C   0  0  0  0  0  0  0  0  0  0  0  0
    1.6030   -0.2242   -1.1413 O   0  0  0  0  0  0  0  0  0  0  0  0
    2.7618   -0.3987   -0.3695 C   0  0  0  0  0  0  0  0  0  0  0  0
    2.7455   -0.2782    1.0329 C   0  0  0  0  0  0  0  0  0  0  0  0
    3.9114   -0.4849    1.7761 C   0  0  0  0  0  0  0  0  0  0  0  0
    5.1068   -0.8210    1.1283 C   0  0  0  0  0  0  0  0  0  0  0  0
    6.2862   -1.0349    1.8528 C   0  0  0  0  0  0  0  0  0  0  0  0
    7.4625   -1.3682    1.1805 C   0  0  0  0  0  0  0  0  0  0  0  0
    7.4509   -1.4827   -0.2141 C   0  0  0  0  0  0  0  0  0  0  0  0
    8.5123   -1.7788   -0.8261 O   0  0  0  0  0  0  0  0  0  0  0  0
    6.2973   -1.2756   -0.9122 N   0  0  0  0  0  0  0  0  0  0  0  0
    5.1318   -0.9490   -0.2804 C   0  0  0  0  0  0  0  0  0  0  0  0
    3.9539   -0.7444   -1.0170 C   0  0  0  0  0  0  0  0  0  0  0  0
    0.6325    1.8587   -0.2766 C   0  0  0  0  0  0  0  0  0  0  0  0
    1.9939    2.8182   -0.0465 S   0  0  0  0  0  0  0  0  0  0  0  0
    1.1395    4.1682    0.5157 C   0  0  0  0  0  0  0  0  0  0  0  0
   -0.2233    3.8768    0.5144 C   0  0  0  0  0  0  0  0  0  0  0  0
   -0.4901    2.5845    0.0583 C   0  0  0  0  0  0  0  0  0  0  0  0
   -1.7272    2.0497   -0.0818 N   0  0  0  0  0  0  0  0  0  0  0  0
   -3.3533   -1.2319   -0.9512 C   0  0  0  0  0  0  0  0  0  0  0  0
   -4.5937   -1.7602   -0.2028 C   0  0  0  0  0  0  0  0  0  0  0  0
   -7.0090   -1.9772   -1.4894 H   0  0  0  0  0  0  0  0  0  0  0  0
   -7.1390   -2.3651    0.2749 H   0  0  0  0  0  0  0  0  0  0  0  0
   -7.8726   -0.8598   -0.3591 H   0  0  0  0  0  0  0  0  0  0  0  0
   -6.4832    0.9912   -1.0313 H   0  0  0  0  0  0  0  0  0  0  0  0
   -5.5725   -0.0490   -2.1849 H   0  0  0  0  0  0  0  0  0  0  0  0
   -4.4806    1.6039    0.1779 H   0  0  0  0  0  0  0  0  0  0  0  0
   -4.1755    1.8598   -1.5800 H   0  0  0  0  0  0  0  0  0  0  0  0
    1.8274   -0.0411    1.5540 H   0  0  0  0  0  0  0  0  0  0  0  0
    3.8767   -0.3876    2.8556 H   0  0  0  0  0  0  0  0  0  0  0  0
    6.2981   -0.9472    2.9331 H   0  0  0  0  0  0  0  0  0  0  0  0
    8.3748   -1.5376    1.7410 H   0  0  0  0  0  0  0  0  0  0  0  0
    6.3151   -1.3672   -1.9549 H   0  0  0  0  0  0  0  0  0  0  0  0
    3.9604   -0.8473   -2.0962 H   0  0  0  0  0  0  0  0  0  0  0  0
    1.5781    5.1069    0.8253 H   0  0  0  0  0  0  0  0  0  0  0  0
   -0.9870    4.5766    0.8245 H   0  0  0  0  0  0  0  0  0  0  0  0
   -3.4729   -1.4053   -2.0414 H   0  0  0  0  0  0  0  0  0  0  0  0
   -2.4658   -1.8058   -0.6081 H   0  0  0  0  0  0  0  0  0  0  0  0
   -4.8518   -2.7546   -0.6310 H   0  0  0  0  0  0  0  0  0  0  0  0
   -4.3085   -1.9353    0.8556 H   0  0  0  0  0  0  0  0  0  0  0  0
  1  2  1  0
  2  3  1  0
  3  4  1  0
  4  5  1  0
  5  6  1  0
  6  7  2  0
  7  8  1  0
  8  9  1  0
  9 10  1  0
 10 11  2  0
 11 12  1  0
 12 13  2  0
 13 14  1  0
 14 15  2  0
 15 16  1  0
 16 17  2  0
 16 18  1  0
 18 19  1  0
 19 20  2  0
  8 21  2  0
 21 22  1  0
 22 23  1  0
 23 24  2  0
 24 25  1  0
 25 26  2  0
  5 27  1  0
 27 28  1  0
 28  2  1  0
 26  6  1  0
 20 10  1  0
 25 21  1  0
 19 13  1  0
  1 29  1  0
  1 30  1  0
  1 31  1  0
  3 32  1  0
  3 33  1  0
  4 34  1  0
  4 35  1  0
 11 36  1  0
 12 37  1  0
 14 38  1  0
 15 39  1  0
 18 40  1  0
 20 41  1  0
 23 42  1  0
 24 43  1  0
 27 44  1  0
 27 45  1  0
 28 46  1  0
 28 47  1  0
M  END
