
     RDKit          3D

 59 62  0  0  0  0  0  0  0  0999 V2000
   -6.9641    2.0053   -0.1681 C   0  0  0  0  0  0  0  0  0  0  0  0
   -5.7002    1.8729   -0.5612 C   0  0  0  0  0  0  0  0  0  0  0  0
   -4.8188    0.8228   -0.0285 C   0  0  0  0  0  0  0  0  0  0  0  0
   -3.9737    1.1574    0.8457 O   0  0  0  0  0  0  0  0  0  0  0  0
   -4.8712   -0.5460   -0.5101 N   0  0  0  0  0  0  0  0  0  0  0  0
   -6.1992   -1.0911   -0.8627 C   0  0  0  0  0  0  0  0  0  0  0  0
   -6.1256   -2.3968   -1.6525 C   0  0  0  0  0  0  0  0  0  0  0  0
   -5.1895   -3.3822   -0.9717 C   0  0  0  0  0  0  0  0  0  0  0  0
   -3.7866   -2.7971   -0.9509 C   0  0  0  0  0  0  0  0  0  0  0  0
   -3.7386   -1.4552   -0.1914 C   0  0  1  0  0  0  0  0  0  0  0  0
   -2.4023   -0.8018   -0.4701 C   0  0  0  0  0  0  0  0  0  0  0  0
   -1.4183   -0.7511    0.4530 N   0  0  0  0  0  0  0  0  0  0  0  0
   -0.4036   -0.1030   -0.1603 C   0  0  0  0  0  0  0  0  0  0  0  0
    0.9054    0.1248    0.4890 C   0  0  0  0  0  0  0  0  0  0  0  0
    2.1052   -0.0242   -0.2247 C   0  0  0  0  0  0  0  0  0  0  0  0
    3.3352    0.1908    0.4033 C   0  0  0  0  0  0  0  0  0  0  0  0
    3.3916    0.5365    1.7665 C   0  0  0  0  0  0  0  0  0  0  0  0
    4.6898    0.7807    2.4452 C   0  0  0  0  0  0  0  0  0  0  0  0
    4.7094    1.4597    3.5099 O   0  0  0  0  0  0  0  0  0  0  0  0
    5.9137    0.2296    1.9229 N   0  0  0  0  0  0  0  0  0  0  0  0
    7.2244    0.6773    2.3116 C   0  0  0  0  0  0  0  0  0  0  0  0
    8.3619    0.0262    1.8126 C   0  0  0  0  0  0  0  0  0  0  0  0
    9.6318    0.4742    2.1855 C   0  0  0  0  0  0  0  0  0  0  0  0
   11.1926   -0.4041    1.5210 Br  0  0  0  0  0  0  0  0  0  0  0  0
    9.7568    1.5671    3.0463 C   0  0  0  0  0  0  0  0  0  0  0  0
    8.6053    2.1954    3.5227 C   0  0  0  0  0  0  0  0  0  0  0  0
    7.3789    1.7434    3.1467 N   0  0  0  0  0  0  0  0  0  0  0  0
    2.1878    0.6707    2.4814 C   0  0  0  0  0  0  0  0  0  0  0  0
    0.9586    0.4554    1.8516 C   0  0  0  0  0  0  0  0  0  0  0  0
   -0.7858    0.2364   -1.4530 C   0  0  0  0  0  0  0  0  0  0  0  0
   -0.0152    1.0157   -2.4420 C   0  0  0  0  0  0  0  0  0  0  0  0
    0.7577    2.1465   -2.0389 N   0  0  0  0  0  0  0  0  0  0  0  0
   -0.0451    0.6884   -3.6583 O   0  0  0  0  0  0  0  0  0  0  0  0
   -2.0414   -0.2176   -1.6358 N   0  0  0  0  0  0  0  0  0  0  0  0
   -2.8485   -0.0259   -2.7718 N   0  0  0  0  0  0  0  0  0  0  0  0
   -7.4271    1.3168    0.5303 H   0  0  0  0  0  0  0  0  0  0  0  0
   -7.4048    1.3021    0.5264 H   0  0  0  0  0  0  0  0  0  0  0  0
   -5.2795    2.6196   -1.2200 H   0  0  0  0  0  0  0  0  0  0  0  0
   -6.7584   -0.3692   -1.4931 H   0  0  0  0  0  0  0  0  0  0  0  0
   -6.7770   -1.2611    0.0715 H   0  0  0  0  0  0  0  0  0  0  0  0
   -7.1413   -2.8413   -1.7220 H   0  0  0  0  0  0  0  0  0  0  0  0
   -5.7731   -2.1925   -2.6869 H   0  0  0  0  0  0  0  0  0  0  0  0
   -5.5357   -3.5951    0.0642 H   0  0  0  0  0  0  0  0  0  0  0  0
   -5.1816   -4.3374   -1.5401 H   0  0  0  0  0  0  0  0  0  0  0  0
   -3.4340   -2.6757   -1.9991 H   0  0  0  0  0  0  0  0  0  0  0  0
   -3.1018   -3.5212   -0.4572 H   0  0  0  0  0  0  0  0  0  0  0  0
   -3.7929   -1.6876    0.8963 H   0  0  0  0  0  0  0  0  0  0  0  0
    2.0939   -0.3156   -1.2670 H   0  0  0  0  0  0  0  0  0  0  0  0
    4.2365    0.1038   -0.1889 H   0  0  0  0  0  0  0  0  0  0  0  0
    5.8523   -0.5657    1.2477 H   0  0  0  0  0  0  0  0  0  0  0  0
    8.2625   -0.8185    1.1425 H   0  0  0  0  0  0  0  0  0  0  0  0
   10.7333    1.9249    3.3442 H   0  0  0  0  0  0  0  0  0  0  0  0
    8.6860    3.0422    4.1921 H   0  0  0  0  0  0  0  0  0  0  0  0
    2.1962    0.9336    3.5323 H   0  0  0  0  0  0  0  0  0  0  0  0
    0.0458    0.5627    2.4256 H   0  0  0  0  0  0  0  0  0  0  0  0
    1.3368    2.6631   -2.7380 H   0  0  0  0  0  0  0  0  0  0  0  0
    0.7190    2.5018   -1.0573 H   0  0  0  0  0  0  0  0  0  0  0  0
   -3.7982   -0.4504   -2.8402 H   0  0  0  0  0  0  0  0  0  0  0  0
   -2.5353    0.5797   -3.5610 H   0  0  0  0  0  0  0  0  0  0  0  0
  1  2  2  0
  2  3  1  0
  3  4  2  0
  3  5  1  0
  5  6  1  0
  6  7  1  0
  7  8  1  0
  8  9  1  0
  9 10  1  0
 10 11  1  0
 11 12  2  0
 12 13  1  0
 13 14  1  0
 14 15  2  0
 15 16  1  0
 16 17  2  0
 17 18  1  0
 18 19  2  0
 18 20  1  0
 20 21  1  0
 21 22  2  0
 22 23  1  0
 23 24  1  0
 23 25  2  0
 25 26  1  0
 26 27  2  0
 17 28  1  0
 28 29  2  0
 13 30  2  0
 30 31  1  0
 31 32  1  0
 31 33  2  0
 30 34  1  0
 34 35  1  0
 10  5  1  0
 34 11  1  0
 29 14  1  0
 27 21  1  0
  1 36  1  0
  1 37  1  0
  2 38  1  0
  6 39  1  0
  6 40  1  0
  7 41  1  0
  7 42  1  0
  8 43  1  0
  8 44  1  0
  9 45  1  0
  9 46  1  0
 10 47  1  1
 15 48  1  0
 16 49  1  0
 20 50  1  0
 22 51  1  0
 25 52  1  0
 26 53  1  0
 28 54  1  0
 29 55  1  0
 32 56  1  0
 32 57  1  0
 35 58  1  0
 35 59  1  0
M  END
