
     RDKit          3D

 71 76  0  0  0  0  0  0  0  0999 V2000
   10.2052    1.2732    0.0432 C   0  0  0  0  0  0  0  0  0  0  0  0
    8.7655    1.0457   -0.1538 N   0  0  0  0  0  0  0  0  0  0  0  0
    8.2880    1.7546   -1.3499 C   0  0  0  0  0  0  0  0  0  0  0  0
    6.8975    1.2283   -1.6994 C   0  0  0  0  0  0  0  0  0  0  0  0
    6.0657    1.0860   -0.4947 N   0  0  0  0  0  0  0  0  0  0  0  0
    4.7172    0.5911   -0.6263 C   0  0  0  0  0  0  0  0  0  0  0  0
    3.6400    1.2928   -0.0570 C   0  0  0  0  0  0  0  0  0  0  0  0
    2.3360    0.8019   -0.1663 C   0  0  0  0  0  0  0  0  0  0  0  0
    2.0871   -0.4121   -0.8285 C   0  0  0  0  0  0  0  0  0  0  0  0
    0.7564   -0.9423   -0.9487 N   0  0  0  0  0  0  0  0  0  0  0  0
   -0.2280   -0.8943    0.0941 C   0  0  0  0  0  0  0  0  0  0  0  0
    0.1018   -0.4565    1.3534 N   0  0  0  0  0  0  0  0  0  0  0  0
   -0.8157   -0.4252    2.3626 C   0  0  0  0  0  0  0  0  0  0  0  0
   -2.0987   -0.8685    2.0830 C   0  0  0  0  0  0  0  0  0  0  0  0
   -3.2345   -0.9440    2.8532 C   0  0  0  0  0  0  0  0  0  0  0  0
   -4.2155   -1.4520    1.9991 C   0  0  0  0  0  0  0  0  0  0  0  0
   -5.6539   -1.6456    2.3975 C   0  0  0  0  0  0  0  0  0  0  0  0
   -6.5417   -0.8334    1.5632 N   0  0  0  0  0  0  0  0  0  0  0  0
   -6.4859    0.6026    1.4740 C   0  0  0  0  0  0  0  0  0  0  0  0
   -5.8361    1.3822    2.4505 C   0  0  0  0  0  0  0  0  0  0  0  0
   -5.7902    2.7744    2.3265 C   0  0  0  0  0  0  0  0  0  0  0  0
   -6.3955    3.4014    1.2352 C   0  0  0  0  0  0  0  0  0  0  0  0
   -7.0538    2.6379    0.2682 C   0  0  0  0  0  0  0  0  0  0  0  0
   -7.1023    1.2462    0.3885 C   0  0  0  0  0  0  0  0  0  0  0  0
   -3.7015   -1.7050    0.7611 N   0  0  0  0  0  0  0  0  0  0  0  0
   -4.4199   -2.2070   -0.4246 C   0  0  0  0  0  0  0  0  0  0  0  0
   -3.6827   -3.3690   -1.1076 C   0  0  0  0  0  0  0  0  0  0  0  0
   -3.3366   -2.8957   -2.5119 C   0  0  0  0  0  0  0  0  0  0  0  0
   -4.3011   -1.7635   -2.8150 C   0  0  0  0  0  0  0  0  0  0  0  0
   -4.5917   -1.1077   -1.4767 C   0  0  0  0  0  0  0  0  0  0  0  0
   -2.4100   -1.3200    0.8386 C   0  0  0  0  0  0  0  0  0  0  0  0
   -1.4961   -1.3364   -0.1631 N   0  0  0  0  0  0  0  0  0  0  0  0
    3.1560   -1.0965   -1.4223 C   0  0  0  0  0  0  0  0  0  0  0  0
    4.4598   -0.6045   -1.3181 C   0  0  0  0  0  0  0  0  0  0  0  0
    6.5024    1.6833    0.7775 C   0  0  0  0  0  0  0  0  0  0  0  0
    8.0086    1.4599    1.0476 C   0  0  0  0  0  0  0  0  0  0  0  0
   10.7773    0.8510   -0.8106 H   0  0  0  0  0  0  0  0  0  0  0  0
   10.5531    0.7541    0.9622 H   0  0  0  0  0  0  0  0  0  0  0  0
   10.4338    2.3589    0.1291 H   0  0  0  0  0  0  0  0  0  0  0  0
    8.9612    1.5675   -2.2162 H   0  0  0  0  0  0  0  0  0  0  0  0
    8.2503    2.8541   -1.1717 H   0  0  0  0  0  0  0  0  0  0  0  0
    6.4042    1.9181   -2.4179 H   0  0  0  0  0  0  0  0  0  0  0  0
    7.0202    0.2384   -2.1877 H   0  0  0  0  0  0  0  0  0  0  0  0
    3.8070    2.2300    0.4593 H   0  0  0  0  0  0  0  0  0  0  0  0
    1.5236    1.3818    0.2508 H   0  0  0  0  0  0  0  0  0  0  0  0
    0.5263   -1.5031   -1.8002 H   0  0  0  0  0  0  0  0  0  0  0  0
   -0.5441   -0.0656    3.3460 H   0  0  0  0  0  0  0  0  0  0  0  0
   -3.3472   -0.6475    3.8880 H   0  0  0  0  0  0  0  0  0  0  0  0
   -5.8070   -1.3888    3.4673 H   0  0  0  0  0  0  0  0  0  0  0  0
   -5.9121   -2.7196    2.2798 H   0  0  0  0  0  0  0  0  0  0  0  0
   -7.2137   -1.3418    0.9447 H   0  0  0  0  0  0  0  0  0  0  0  0
   -5.3752    0.9256    3.3139 H   0  0  0  0  0  0  0  0  0  0  0  0
   -5.2868    3.3679    3.0794 H   0  0  0  0  0  0  0  0  0  0  0  0
   -6.3577    4.4790    1.1402 H   0  0  0  0  0  0  0  0  0  0  0  0
   -7.5260    3.1243   -0.5761 H   0  0  0  0  0  0  0  0  0  0  0  0
   -7.6121    0.6670   -0.3711 H   0  0  0  0  0  0  0  0  0  0  0  0
   -5.4250   -2.5788   -0.1327 H   0  0  0  0  0  0  0  0  0  0  0  0
   -4.3591   -4.2496   -1.1767 H   0  0  0  0  0  0  0  0  0  0  0  0
   -2.7704   -3.6867   -0.5590 H   0  0  0  0  0  0  0  0  0  0  0  0
   -2.2935   -2.5112   -2.5330 H   0  0  0  0  0  0  0  0  0  0  0  0
   -3.4348   -3.7172   -3.2541 H   0  0  0  0  0  0  0  0  0  0  0  0
   -3.8630   -1.0399   -3.5361 H   0  0  0  0  0  0  0  0  0  0  0  0
   -5.2422   -2.1796   -3.2378 H   0  0  0  0  0  0  0  0  0  0  0  0
   -3.8704   -0.2772   -1.3127 H   0  0  0  0  0  0  0  0  0  0  0  0
   -5.6213   -0.6900   -1.4570 H   0  0  0  0  0  0  0  0  0  0  0  0
    2.9813   -2.0266   -1.9474 H   0  0  0  0  0  0  0  0  0  0  0  0
    5.2688   -1.1741   -1.7549 H   0  0  0  0  0  0  0  0  0  0  0  0
    6.2951    2.7754    0.7431 H   0  0  0  0  0  0  0  0  0  0  0  0
    5.9202    1.2579    1.6243 H   0  0  0  0  0  0  0  0  0  0  0  0
    8.4263    2.3981    1.4805 H   0  0  0  0  0  0  0  0  0  0  0  0
    8.1171    0.6660    1.8179 H   0  0  0  0  0  0  0  0  0  0  0  0
  1  2  1  0
  2  3  1  0
  3  4  1  0
  4  5  1  0
  5  6  1  0
  6  7  2  0
  7  8  1  0
  8  9  2  0
  9 10  1  0
 10 11  1  0
 11 12  2  0
 12 13  1  0
 13 14  2  0
 14 15  1  0
 15 16  2  0
 16 17  1  0
 17 18  1  0
 18 19  1  0
 19 20  2  0
 20 21  1  0
 21 22  2  0
 22 23  1  0
 23 24  2  0
 16 25  1  0
 25 26  1  0
 26 27  1  0
 27 28  1  0
 28 29  1  0
 29 30  1  0
 25 31  1  0
 31 32  2  0
  9 33  1  0
 33 34  2  0
  5 35  1  0
 35 36  1  0
 36  2  1  0
 34  6  1  0
 32 11  1  0
 31 14  1  0
 24 19  1  0
 30 26  1  0
  1 37  1  0
  1 38  1  0
  1 39  1  0
  3 40  1  0
  3 41  1  0
  4 42  1  0
  4 43  1  0
  7 44  1  0
  8 45  1  0
 10 46  1  0
 13 47  1  0
 15 48  1  0
 17 49  1  0
 17 50  1  0
 18 51  1  0
 20 52  1  0
 21 53  1  0
 22 54  1  0
 23 55  1  0
 24 56  1  0
 26 57  1  0
 27 58  1  0
 27 59  1  0
 28 60  1  0
 28 61  1  0
 29 62  1  0
 29 63  1  0
 30 64  1  0
 30 65  1  0
 33 66  1  0
 34 67  1  0
 35 68  1  0
 35 69  1  0
 36 70  1  0
 36 71  1  0
M  END
