
     RDKit          3D

 43 45  0  0  0  0  0  0  0  0999 V2000
   -7.5387   -1.5526    0.7483 N   0  0  0  0  0  0  0  0  0  0  0  0
   -6.7232   -0.4548    0.3240 C   0  0  0  0  0  0  0  0  0  0  0  0
   -7.3330    0.7175    0.0054 N   0  0  0  0  0  0  0  0  0  0  0  0
   -6.6202    1.8172   -0.3395 C   0  0  0  0  0  0  0  0  0  0  0  0
   -5.2667    1.7674   -0.3649 N   0  0  0  0  0  0  0  0  0  0  0  0
   -4.5954    0.6230   -0.0646 C   0  0  0  0  0  0  0  0  0  0  0  0
   -3.1971    0.5959   -0.1210 O   0  0  0  0  0  0  0  0  0  0  0  0
   -2.4113    1.7310   -0.4665 C   0  0  0  0  0  0  0  0  0  0  0  0
   -0.9595    1.3551   -0.4220 C   0  0  0  0  0  0  0  0  0  0  0  0
   -0.2399    1.4582    0.7767 C   0  0  0  0  0  0  0  0  0  0  0  0
    1.1009    1.0682    0.8313 C   0  0  0  0  0  0  0  0  0  0  0  0
    1.7402    0.5547   -0.3138 C   0  0  0  0  0  0  0  0  0  0  0  0
    3.0848    0.1523   -0.3011 O   0  0  0  0  0  0  0  0  0  0  0  0
    3.9374    0.2152    0.8384 C   0  0  0  0  0  0  0  0  0  0  0  0
    5.2961   -0.2992    0.4637 C   0  0  0  0  0  0  0  0  0  0  0  0
    6.2641    0.5737   -0.0599 C   0  0  0  0  0  0  0  0  0  0  0  0
    7.5167    0.0858   -0.4458 C   0  0  0  0  0  0  0  0  0  0  0  0
    7.8061   -1.2761   -0.3234 C   0  0  0  0  0  0  0  0  0  0  0  0
    6.8416   -2.1532    0.1804 C   0  0  0  0  0  0  0  0  0  0  0  0
    5.5878   -1.6693    0.5673 C   0  0  0  0  0  0  0  0  0  0  0  0
    1.0121    0.4366   -1.5079 C   0  0  0  0  0  0  0  0  0  0  0  0
    1.7730   -0.2109   -2.9535 Cl  0  0  0  0  0  0  0  0  0  0  0  0
   -0.3304    0.8281   -1.5591 C   0  0  0  0  0  0  0  0  0  0  0  0
   -5.3110   -0.5392    0.2819 C   0  0  0  0  0  0  0  0  0  0  0  0
   -4.5820   -1.8002    0.5495 C   0  0  0  0  0  0  0  0  0  0  0  0
   -5.0360   -2.9011    0.1369 O   0  0  0  0  0  0  0  0  0  0  0  0
   -3.3649   -1.7732    1.2251 O   0  0  0  0  0  0  0  0  0  0  0  0
   -7.1451   -2.3860    1.2355 H   0  0  0  0  0  0  0  0  0  0  0  0
   -8.5784   -1.4770    0.6870 H   0  0  0  0  0  0  0  0  0  0  0  0
   -7.1318    2.7374   -0.5859 H   0  0  0  0  0  0  0  0  0  0  0  0
   -2.6139    2.5592    0.2477 H   0  0  0  0  0  0  0  0  0  0  0  0
   -2.6855    2.0812   -1.4859 H   0  0  0  0  0  0  0  0  0  0  0  0
   -0.7176    1.8399    1.6708 H   0  0  0  0  0  0  0  0  0  0  0  0
    1.6293    1.1661    1.7696 H   0  0  0  0  0  0  0  0  0  0  0  0
    4.0146    1.2663    1.1931 H   0  0  0  0  0  0  0  0  0  0  0  0
    3.5125   -0.4010    1.6608 H   0  0  0  0  0  0  0  0  0  0  0  0
    6.0489    1.6295   -0.1698 H   0  0  0  0  0  0  0  0  0  0  0  0
    8.2615    0.7630   -0.8435 H   0  0  0  0  0  0  0  0  0  0  0  0
    8.7755   -1.6523   -0.6238 H   0  0  0  0  0  0  0  0  0  0  0  0
    7.0640   -3.2089    0.2672 H   0  0  0  0  0  0  0  0  0  0  0  0
    4.8457   -2.3612    0.9463 H   0  0  0  0  0  0  0  0  0  0  0  0
   -0.8832    0.7204   -2.4845 H   0  0  0  0  0  0  0  0  0  0  0  0
   -2.8476   -2.6265    1.3998 H   0  0  0  0  0  0  0  0  0  0  0  0
  1  2  1  0
  2  3  2  0
  3  4  1  0
  4  5  2  0
  5  6  1  0
  6  7  1  0
  7  8  1  0
  8  9  1  0
  9 10  2  0
 10 11  1  0
 11 12  2  0
 12 13  1  0
 13 14  1  0
 14 15  1  0
 15 16  2  0
 16 17  1  0
 17 18  2  0
 18 19  1  0
 19 20  2  0
 12 21  1  0
 21 22  1  0
 21 23  2  0
  6 24  2  0
 24 25  1  0
 25 26  2  0
 25 27  1  0
 24  2  1  0
 23  9  1  0
 20 15  1  0
  1 28  1  0
  1 29  1  0
  4 30  1  0
  8 31  1  0
  8 32  1  0
 10 33  1  0
 11 34  1  0
 14 35  1  0
 14 36  1  0
 16 37  1  0
 17 38  1  0
 18 39  1  0
 19 40  1  0
 20 41  1  0
 23 42  1  0
 27 43  1  0
M  END
