
     RDKit          3D

 64 67  0  0  0  0  0  0  0  0999 V2000
   -6.2732    3.7263    1.8469 C   0  0  0  0  0  0  0  0  0  0  0  0
   -7.3771    3.1199    2.2814 C   0  0  0  0  0  0  0  0  0  0  0  0
   -7.9122    1.8405    1.7637 C   0  0  0  0  0  0  0  0  0  0  0  0
   -8.7414    1.2226    2.4866 O   0  0  0  0  0  0  0  0  0  0  0  0
   -7.5099    1.2934    0.4906 N   0  0  0  0  0  0  0  0  0  0  0  0
   -7.7488   -0.0685    0.0912 C   0  0  0  0  0  0  0  0  0  0  0  0
   -8.9735   -0.7126    0.3435 C   0  0  0  0  0  0  0  0  0  0  0  0
   -9.1748   -2.0332   -0.0645 C   0  0  0  0  0  0  0  0  0  0  0  0
   -8.1616   -2.7229   -0.7314 C   0  0  0  0  0  0  0  0  0  0  0  0
   -6.9415   -2.0969   -1.0208 C   0  0  0  0  0  0  0  0  0  0  0  0
   -5.9400   -2.8196   -1.7624 N   0  0  0  0  0  0  0  0  0  0  0  0
   -4.5530   -2.4517   -1.8474 C   0  0  0  0  0  0  0  0  0  0  0  0
   -3.9446   -1.8357   -0.7980 N   0  0  0  0  0  0  0  0  0  0  0  0
   -2.6366   -1.4637   -0.8477 C   0  0  0  0  0  0  0  0  0  0  0  0
   -2.0543   -0.7651    0.2616 N   0  0  0  0  0  0  0  0  0  0  0  0
   -0.6523   -0.4742    0.3768 C   0  0  0  0  0  0  0  0  0  0  0  0
   -0.2434    0.7433    0.9356 C   0  0  0  0  0  0  0  0  0  0  0  0
    1.1179    1.0470    1.0586 C   0  0  0  0  0  0  0  0  0  0  0  0
    2.0945    0.1364    0.6209 C   0  0  0  0  0  0  0  0  0  0  0  0
    3.5264    0.5107    0.7506 C   0  0  0  0  0  0  0  0  0  0  0  0
    4.5026   -0.0357    0.0073 C   0  0  0  0  0  0  0  0  0  0  0  0
    5.9349    0.3410    0.1091 C   0  0  0  0  0  0  0  0  0  0  0  0
    6.3588    1.5818    0.6251 C   0  0  0  0  0  0  0  0  0  0  0  0
    7.7175    1.9068    0.6869 C   0  0  0  0  0  0  0  0  0  0  0  0
    8.0772    3.1560    1.2129 O   0  0  0  0  0  0  0  0  0  0  0  0
    9.4168    3.6099    1.3794 C   0  0  0  0  0  0  0  0  0  0  0  0
    8.6707    0.9831    0.2138 C   0  0  0  0  0  0  0  0  0  0  0  0
    8.2623   -0.2530   -0.3144 C   0  0  0  0  0  0  0  0  0  0  0  0
    9.1741   -1.2015   -0.8038 O   0  0  0  0  0  0  0  0  0  0  0  0
   10.5846   -1.0201   -0.8464 C   0  0  0  0  0  0  0  0  0  0  0  0
    6.8992   -0.5605   -0.3653 C   0  0  0  0  0  0  0  0  0  0  0  0
    1.6813   -1.1080    0.1096 C   0  0  0  0  0  0  0  0  0  0  0  0
    0.3207   -1.4094   -0.0087 C   0  0  0  0  0  0  0  0  0  0  0  0
   -1.9171   -1.7069   -1.9748 N   0  0  0  0  0  0  0  0  0  0  0  0
   -2.4709   -2.3466   -3.0388 C   0  0  0  0  0  0  0  0  0  0  0  0
   -3.8063   -2.7436   -2.9996 C   0  0  0  0  0  0  0  0  0  0  0  0
   -4.5161   -3.5260   -4.4044 Cl  0  0  0  0  0  0  0  0  0  0  0  0
   -6.7554   -0.7549   -0.6264 C   0  0  0  0  0  0  0  0  0  0  0  0
   -5.6841    3.3682    1.0162 H   0  0  0  0  0  0  0  0  0  0  0  0
   -5.6980    3.3512    1.0118 H   0  0  0  0  0  0  0  0  0  0  0  0
   -7.8744    3.5589    3.1372 H   0  0  0  0  0  0  0  0  0  0  0  0
   -6.8732    1.8470   -0.1275 H   0  0  0  0  0  0  0  0  0  0  0  0
   -9.7927   -0.1924    0.8239 H   0  0  0  0  0  0  0  0  0  0  0  0
  -10.1205   -2.5210    0.1348 H   0  0  0  0  0  0  0  0  0  0  0  0
   -8.3350   -3.7448   -1.0384 H   0  0  0  0  0  0  0  0  0  0  0  0
   -6.2506   -3.6740   -2.2792 H   0  0  0  0  0  0  0  0  0  0  0  0
   -2.7042   -0.3581    0.9707 H   0  0  0  0  0  0  0  0  0  0  0  0
   -0.9792    1.4681    1.2583 H   0  0  0  0  0  0  0  0  0  0  0  0
    1.4076    2.0031    1.4729 H   0  0  0  0  0  0  0  0  0  0  0  0
    3.7660    1.2821    1.4684 H   0  0  0  0  0  0  0  0  0  0  0  0
    4.2587   -0.8088   -0.7112 H   0  0  0  0  0  0  0  0  0  0  0  0
    5.6430    2.3203    0.9623 H   0  0  0  0  0  0  0  0  0  0  0  0
    9.9667    2.9327    2.0659 H   0  0  0  0  0  0  0  0  0  0  0  0
    9.9298    3.6575    0.3954 H   0  0  0  0  0  0  0  0  0  0  0  0
    9.4060    4.6262    1.8229 H   0  0  0  0  0  0  0  0  0  0  0  0
    9.7205    1.2285    0.2533 H   0  0  0  0  0  0  0  0  0  0  0  0
   11.0548   -1.9254   -1.2833 H   0  0  0  0  0  0  0  0  0  0  0  0
   10.9849   -0.8770    0.1800 H   0  0  0  0  0  0  0  0  0  0  0  0
   10.8383   -0.1412   -1.4771 H   0  0  0  0  0  0  0  0  0  0  0  0
    6.5946   -1.5152   -0.7804 H   0  0  0  0  0  0  0  0  0  0  0  0
    2.3984   -1.8638   -0.1768 H   0  0  0  0  0  0  0  0  0  0  0  0
    0.0307   -2.3830   -0.3844 H   0  0  0  0  0  0  0  0  0  0  0  0
   -1.8752   -2.5241   -3.9215 H   0  0  0  0  0  0  0  0  0  0  0  0
   -5.8486   -0.2237   -0.8785 H   0  0  0  0  0  0  0  0  0  0  0  0
  1  2  2  0
  2  3  1  0
  3  4  2  0
  3  5  1  0
  5  6  1  0
  6  7  2  0
  7  8  1  0
  8  9  2  0
  9 10  1  0
 10 11  1  0
 11 12  1  0
 12 13  2  0
 13 14  1  0
 14 15  1  0
 15 16  1  0
 16 17  2  0
 17 18  1  0
 18 19  2  0
 19 20  1  0
 20 21  2  0
 21 22  1  0
 22 23  2  0
 23 24  1  0
 24 25  1  0
 25 26  1  0
 24 27  2  0
 27 28  1  0
 28 29  1  0
 29 30  1  0
 28 31  2  0
 19 32  1  0
 32 33  2  0
 14 34  2  0
 34 35  1  0
 35 36  2  0
 36 37  1  0
 10 38  2  0
 38  6  1  0
 36 12  1  0
 33 16  1  0
 31 22  1  0
  1 39  1  0
  1 40  1  0
  2 41  1  0
  5 42  1  0
  7 43  1  0
  8 44  1  0
  9 45  1  0
 11 46  1  0
 15 47  1  0
 17 48  1  0
 18 49  1  0
 20 50  1  0
 21 51  1  0
 23 52  1  0
 26 53  1  0
 26 54  1  0
 26 55  1  0
 27 56  1  0
 30 57  1  0
 30 58  1  0
 30 59  1  0
 31 60  1  0
 32 61  1  0
 33 62  1  0
 35 63  1  0
 38 64  1  0
M  END
