
     RDKit          3D

 66 69  0  0  0  0  0  0  0  0999 V2000
    8.3633   -0.3535   -3.0874 C   0  0  0  0  0  0  0  0  0  0  0  0
    7.5466    0.4861   -3.7194 C   0  0  0  0  0  0  0  0  0  0  0  0
    6.6959    1.4703   -3.0285 C   0  0  0  0  0  0  0  0  0  0  0  0
    6.9195    2.6883   -3.2679 O   0  0  0  0  0  0  0  0  0  0  0  0
    5.5787    1.0905   -2.1848 N   0  0  0  0  0  0  0  0  0  0  0  0
    5.3899   -0.3132   -1.7619 C   0  0  0  0  0  0  0  0  0  0  0  0
    4.2142   -0.4640   -0.7847 C   0  0  0  0  0  0  0  0  0  0  0  0
    4.2549    0.6882    0.2395 C   0  0  0  0  0  0  0  0  0  0  0  0
    3.2609    0.5213    1.2537 O   0  0  0  0  0  0  0  0  0  0  0  0
    3.0710   -0.6412    2.0156 C   0  0  0  0  0  0  0  0  0  0  0  0
    1.8251   -1.1798    2.0498 N   0  0  0  0  0  0  0  0  0  0  0  0
    1.5539   -2.3246    2.7268 C   0  0  0  0  0  0  0  0  0  0  0  0
    0.2264   -2.8605    2.7639 N   0  0  0  0  0  0  0  0  0  0  0  0
   -0.8500   -2.3901    1.9328 C   0  0  0  0  0  0  0  0  0  0  0  0
   -2.1425   -2.3024    2.4637 C   0  0  0  0  0  0  0  0  0  0  0  0
   -3.2040   -1.8538    1.6722 C   0  0  0  0  0  0  0  0  0  0  0  0
   -2.9844   -1.4856    0.3350 C   0  0  0  0  0  0  0  0  0  0  0  0
   -4.1240   -0.9797   -0.5119 C   0  0  0  0  0  0  0  0  0  0  0  0
   -4.0116    0.4780   -0.7527 N   0  0  0  0  0  0  0  0  0  0  0  0
   -4.9099    0.9489   -1.8397 C   0  0  0  0  0  0  0  0  0  0  0  0
   -6.1539    1.7225   -1.3498 C   0  0  0  0  0  0  0  0  0  0  0  0
   -6.6661    1.1739   -0.0101 C   0  0  0  0  0  0  0  0  0  0  0  0
   -7.9494    1.9041    0.4249 C   0  0  0  0  0  0  0  0  0  0  0  0
   -8.4937    1.3013    1.5721 O   0  0  0  0  0  0  0  0  0  0  0  0
   -5.5597    1.2657    1.0701 C   0  0  0  0  0  0  0  0  0  0  0  0
   -4.1340    1.2912    0.4773 C   0  0  0  0  0  0  0  0  0  0  0  0
   -1.6959   -1.5914   -0.2061 C   0  0  0  0  0  0  0  0  0  0  0  0
   -0.6376   -2.0492    0.5822 C   0  0  0  0  0  0  0  0  0  0  0  0
    2.5407   -2.9328    3.4340 N   0  0  0  0  0  0  0  0  0  0  0  0
    3.7982   -2.4262    3.4537 C   0  0  0  0  0  0  0  0  0  0  0  0
    4.1011   -1.2599    2.7489 C   0  0  0  0  0  0  0  0  0  0  0  0
    5.7133   -0.5791    2.9190 Cl  0  0  0  0  0  0  0  0  0  0  0  0
    4.0300    2.0449   -0.4623 C   0  0  0  0  0  0  0  0  0  0  0  0
    4.4868    2.0571   -1.9367 C   0  0  0  0  0  0  0  0  0  0  0  0
    8.3999   -0.3896   -2.0079 H   0  0  0  0  0  0  0  0  0  0  0  0
    8.4317   -0.4201   -2.0073 H   0  0  0  0  0  0  0  0  0  0  0  0
    7.6488    0.5735   -4.7948 H   0  0  0  0  0  0  0  0  0  0  0  0
    6.2897   -0.6626   -1.2163 H   0  0  0  0  0  0  0  0  0  0  0  0
    5.2303   -0.9613   -2.6536 H   0  0  0  0  0  0  0  0  0  0  0  0
    4.2994   -1.4449   -0.2687 H   0  0  0  0  0  0  0  0  0  0  0  0
    3.2506   -0.4518   -1.3439 H   0  0  0  0  0  0  0  0  0  0  0  0
    5.2602    0.7183    0.7021 H   0  0  0  0  0  0  0  0  0  0  0  0
    0.0073   -3.5528    3.5165 H   0  0  0  0  0  0  0  0  0  0  0  0
   -2.3263   -2.5755    3.4962 H   0  0  0  0  0  0  0  0  0  0  0  0
   -4.1918   -1.7801    2.1045 H   0  0  0  0  0  0  0  0  0  0  0  0
   -5.1011   -1.2395   -0.0515 H   0  0  0  0  0  0  0  0  0  0  0  0
   -4.0725   -1.5280   -1.4797 H   0  0  0  0  0  0  0  0  0  0  0  0
   -4.3239    1.6152   -2.5083 H   0  0  0  0  0  0  0  0  0  0  0  0
   -5.2522    0.1054   -2.4774 H   0  0  0  0  0  0  0  0  0  0  0  0
   -6.9497    1.6486   -2.1249 H   0  0  0  0  0  0  0  0  0  0  0  0
   -5.8974    2.7993   -1.2309 H   0  0  0  0  0  0  0  0  0  0  0  0
   -6.9379    0.1070   -0.1617 H   0  0  0  0  0  0  0  0  0  0  0  0
   -7.7468    2.9886    0.6019 H   0  0  0  0  0  0  0  0  0  0  0  0
   -8.7034    1.8334   -0.3903 H   0  0  0  0  0  0  0  0  0  0  0  0
   -8.0434    1.7170    2.3580 H   0  0  0  0  0  0  0  0  0  0  0  0
   -5.6586    0.3980    1.7608 H   0  0  0  0  0  0  0  0  0  0  0  0
   -5.6830    2.1842    1.6832 H   0  0  0  0  0  0  0  0  0  0  0  0
   -3.8669    2.3425    0.2357 H   0  0  0  0  0  0  0  0  0  0  0  0
   -3.3976    0.9661    1.2402 H   0  0  0  0  0  0  0  0  0  0  0  0
   -1.5132   -1.3283   -1.2419 H   0  0  0  0  0  0  0  0  0  0  0  0
    0.3389   -2.1580    0.1271 H   0  0  0  0  0  0  0  0  0  0  0  0
    4.5630   -2.9236    4.0364 H   0  0  0  0  0  0  0  0  0  0  0  0
    2.9449    2.3050   -0.4398 H   0  0  0  0  0  0  0  0  0  0  0  0
    4.5562    2.8405    0.1028 H   0  0  0  0  0  0  0  0  0  0  0  0
    4.7685    3.0987   -2.2150 H   0  0  0  0  0  0  0  0  0  0  0  0
    3.6225    1.7706   -2.5831 H   0  0  0  0  0  0  0  0  0  0  0  0
  1  2  2  0
  2  3  1  0
  3  4  2  0
  3  5  1  0
  5  6  1  0
  6  7  1  0
  7  8  1  0
  8  9  1  0
  9 10  1  0
 10 11  2  0
 11 12  1  0
 12 13  1  0
 13 14  1  0
 14 15  2  0
 15 16  1  0
 16 17  2  0
 17 18  1  0
 18 19  1  0
 19 20  1  0
 20 21  1  0
 21 22  1  0
 22 23  1  0
 23 24  1  0
 22 25  1  0
 25 26  1  0
 17 27  1  0
 27 28  2  0
 12 29  2  0
 29 30  1  0
 30 31  2  0
 31 32  1  0
  8 33  1  0
 33 34  1  0
 34  5  1  0
 31 10  1  0
 28 14  1  0
 26 19  1  0
  1 35  1  0
  1 36  1  0
  2 37  1  0
  6 38  1  0
  6 39  1  0
  7 40  1  0
  7 41  1  0
  8 42  1  0
 13 43  1  0
 15 44  1  0
 16 45  1  0
 18 46  1  0
 18 47  1  0
 20 48  1  0
 20 49  1  0
 21 50  1  0
 21 51  1  0
 22 52  1  0
 23 53  1  0
 23 54  1  0
 24 55  1  0
 25 56  1  0
 25 57  1  0
 26 58  1  0
 26 59  1  0
 27 60  1  0
 28 61  1  0
 30 62  1  0
 33 63  1  0
 33 64  1  0
 34 65  1  0
 34 66  1  0
M  END
