
     RDKit          3D

 32 34  0  0  0  0  0  0  0  0999 V2000
    5.2529    0.2876   -1.3870 C   0  0  0  0  0  0  0  0  0  0  0  0
    4.0846    0.4398   -0.4585 C   0  0  0  0  0  0  0  0  0  0  0  0
    4.2601    1.0152    0.8085 C   0  0  0  0  0  0  0  0  0  0  0  0
    3.1642    1.1986    1.6547 C   0  0  0  0  0  0  0  0  0  0  0  0
    1.8858    0.8148    1.2422 C   0  0  0  0  0  0  0  0  0  0  0  0
    1.6928    0.2352   -0.0248 C   0  0  0  0  0  0  0  0  0  0  0  0
    0.3819   -0.1388   -0.4838 N   0  0  0  0  0  0  0  0  0  0  0  0
   -0.6720   -0.5674    0.3962 C   0  0  0  0  0  0  0  0  0  0  0  0
   -0.3558   -1.2288    1.5436 N   0  0  0  0  0  0  0  0  0  0  0  0
   -1.3125   -1.6978    2.3844 C   0  0  0  0  0  0  0  0  0  0  0  0
   -2.6247   -1.5239    2.0883 N   0  0  0  0  0  0  0  0  0  0  0  0
   -3.0056   -0.8755    0.9578 C   0  0  0  0  0  0  0  0  0  0  0  0
   -4.3630   -0.7028    0.6765 C   0  0  0  0  0  0  0  0  0  0  0  0
   -4.7423   -0.0172   -0.4828 C   0  0  0  0  0  0  0  0  0  0  0  0
   -6.1233    0.1730   -0.7915 N   0  0  0  0  0  0  0  0  0  0  0  0
   -3.7899    0.4785   -1.3180 N   0  0  0  0  0  0  0  0  0  0  0  0
   -2.4612    0.3244   -1.0735 C   0  0  0  0  0  0  0  0  0  0  0  0
   -2.0312   -0.3705    0.0712 C   0  0  0  0  0  0  0  0  0  0  0  0
    2.7962    0.0724   -0.8778 C   0  0  0  0  0  0  0  0  0  0  0  0
    6.1918    0.1311   -0.8142 H   0  0  0  0  0  0  0  0  0  0  0  0
    5.1097   -0.5876   -2.0560 H   0  0  0  0  0  0  0  0  0  0  0  0
    5.3545    1.2036   -2.0055 H   0  0  0  0  0  0  0  0  0  0  0  0
    5.2433    1.3274    1.1384 H   0  0  0  0  0  0  0  0  0  0  0  0
    3.3043    1.6494    2.6287 H   0  0  0  0  0  0  0  0  0  0  0  0
    1.0478    0.9939    1.9028 H   0  0  0  0  0  0  0  0  0  0  0  0
    0.2333   -0.2251   -1.5142 H   0  0  0  0  0  0  0  0  0  0  0  0
   -1.0279   -2.2170    3.2890 H   0  0  0  0  0  0  0  0  0  0  0  0
   -5.1143   -1.0932    1.3526 H   0  0  0  0  0  0  0  0  0  0  0  0
   -6.8706   -0.1972   -0.1627 H   0  0  0  0  0  0  0  0  0  0  0  0
   -6.4026    0.6876   -1.6560 H   0  0  0  0  0  0  0  0  0  0  0  0
   -1.7577    0.7596   -1.7684 H   0  0  0  0  0  0  0  0  0  0  0  0
    2.6514   -0.3495   -1.8652 H   0  0  0  0  0  0  0  0  0  0  0  0
  1  2  1  0
  2  3  2  0
  3  4  1  0
  4  5  2  0
  5  6  1  0
  6  7  1  0
  7  8  1  0
  8  9  2  0
  9 10  1  0
 10 11  2  0
 11 12  1  0
 12 13  2  0
 13 14  1  0
 14 15  1  0
 14 16  2  0
 16 17  1  0
 17 18  2  0
  6 19  2  0
 19  2  1  0
 18  8  1  0
 18 12  1  0
  1 20  1  0
  1 21  1  0
  1 22  1  0
  3 23  1  0
  4 24  1  0
  5 25  1  0
  7 26  1  0
 10 27  1  0
 13 28  1  0
 15 29  1  0
 15 30  1  0
 17 31  1  0
 19 32  1  0
M  END
