
     RDKit          3D

 63 66  0  0  0  0  0  0  0  0999 V2000
    4.1500   -1.3009    1.3636 C   0  0  0  0  0  0  0  0  0  0  0  0
    3.8958   -0.4050    0.2269 N   0  0  0  0  0  0  0  0  0  0  0  0
    4.9760   -0.0023   -0.6457 C   0  0  0  0  0  0  0  0  0  0  0  0
    4.9159    1.1083   -1.2396 O   0  0  0  0  0  0  0  0  0  0  0  0
    6.0904   -0.9111   -0.9920 C   0  0  0  0  0  0  0  0  0  0  0  0
    6.2636   -1.2936   -2.3332 C   0  0  0  0  0  0  0  0  0  0  0  0
    7.3261   -2.1282   -2.7008 C   0  0  0  0  0  0  0  0  0  0  0  0
    8.2153   -2.5959   -1.7272 C   0  0  0  0  0  0  0  0  0  0  0  0
    8.0522   -2.2141   -0.3885 C   0  0  0  0  0  0  0  0  0  0  0  0
    7.0074   -1.3564   -0.0248 C   0  0  0  0  0  0  0  0  0  0  0  0
    2.5291    0.0929   -0.0369 C   0  0  0  0  0  0  0  0  0  0  0  0
    1.5221   -1.0732   -0.2335 C   0  0  0  0  0  0  0  0  0  0  0  0
    0.4286   -1.0430    0.7535 N   0  0  0  0  0  0  0  0  0  0  0  0
   -0.3195    0.2359    0.8058 C   0  0  2  0  0  0  0  0  0  0  0  0
   -1.3383    0.3391   -0.3207 C   0  0  0  0  0  0  0  0  0  0  0  0
   -0.9640    0.1364   -1.5069 O   0  0  0  0  0  0  0  0  0  0  0  0
   -2.7082    0.7240   -0.0811 N   0  0  0  0  0  0  0  0  0  0  0  0
   -3.2035    1.3241    1.1510 C   0  0  0  0  0  0  0  0  0  0  0  0
   -4.6428    1.7481    0.8664 C   0  0  0  0  0  0  0  0  0  0  0  0
   -5.0293    1.1139   -0.4844 C   0  0  2  0  0  0  0  0  0  0  0  0
   -6.0246   -0.0240   -0.3107 C   0  0  0  0  0  0  0  0  0  0  0  0
   -5.7253   -1.1363    0.5047 C   0  0  0  0  0  0  0  0  0  0  0  0
   -6.6589   -2.1671    0.6711 C   0  0  0  0  0  0  0  0  0  0  0  0
   -7.8961   -2.1003    0.0259 C   0  0  0  0  0  0  0  0  0  0  0  0
   -8.2024   -1.0048   -0.7848 C   0  0  0  0  0  0  0  0  0  0  0  0
   -7.2710    0.0252   -0.9607 C   0  0  0  0  0  0  0  0  0  0  0  0
   -3.7211    0.6282   -1.1198 C   0  0  0  0  0  0  0  0  0  0  0  0
    0.6243    1.4811    0.8325 C   0  0  1  0  0  0  0  0  0  0  0  0
    0.2040    2.4812    1.8854 C   0  0  0  0  0  0  0  0  0  0  0  0
    0.0860    2.1164    3.0880 O   0  0  0  0  0  0  0  0  0  0  0  0
   -0.0687    3.8382    1.5300 N   0  0  0  0  0  0  0  0  0  0  0  0
   -0.5026    4.7150    2.4699 O   0  0  0  0  0  0  0  0  0  0  0  0
    2.0873    1.0725    1.0622 C   0  0  0  0  0  0  0  0  0  0  0  0
    4.8464   -0.8181    2.0785 H   0  0  0  0  0  0  0  0  0  0  0  0
    4.5760   -2.2609    1.0071 H   0  0  0  0  0  0  0  0  0  0  0  0
    3.2142   -1.5347    1.9064 H   0  0  0  0  0  0  0  0  0  0  0  0
    5.5739   -0.9430   -3.0927 H   0  0  0  0  0  0  0  0  0  0  0  0
    7.4528   -2.4209   -3.7376 H   0  0  0  0  0  0  0  0  0  0  0  0
    9.0285   -3.2532   -2.0092 H   0  0  0  0  0  0  0  0  0  0  0  0
    8.7500   -2.5658    0.3631 H   0  0  0  0  0  0  0  0  0  0  0  0
    6.9357   -1.0170    1.0003 H   0  0  0  0  0  0  0  0  0  0  0  0
    2.5191    0.6654   -0.9933 H   0  0  0  0  0  0  0  0  0  0  0  0
    2.0416   -2.0544   -0.1582 H   0  0  0  0  0  0  0  0  0  0  0  0
    1.1163   -1.0570   -1.2660 H   0  0  0  0  0  0  0  0  0  0  0  0
   -0.2322   -1.8302    0.5502 H   0  0  0  0  0  0  0  0  0  0  0  0
   -0.8818    0.1971    1.7617 H   0  0  0  0  0  0  0  0  0  0  0  0
   -2.5885    2.2134    1.4220 H   0  0  0  0  0  0  0  0  0  0  0  0
   -3.1737    0.5779    1.9786 H   0  0  0  0  0  0  0  0  0  0  0  0
   -5.3183    1.4379    1.6969 H   0  0  0  0  0  0  0  0  0  0  0  0
   -4.6930    2.8588    0.7860 H   0  0  0  0  0  0  0  0  0  0  0  0
   -5.4690    1.9002   -1.1394 H   0  0  0  0  0  0  0  0  0  0  0  0
   -4.7654   -1.2060    1.0007 H   0  0  0  0  0  0  0  0  0  0  0  0
   -6.4158   -3.0247    1.2848 H   0  0  0  0  0  0  0  0  0  0  0  0
   -8.6170   -2.8988    0.1471 H   0  0  0  0  0  0  0  0  0  0  0  0
   -9.1572   -0.9578   -1.2897 H   0  0  0  0  0  0  0  0  0  0  0  0
   -7.5251    0.8584   -1.6073 H   0  0  0  0  0  0  0  0  0  0  0  0
   -3.4459    1.2904   -1.9732 H   0  0  0  0  0  0  0  0  0  0  0  0
   -3.7911   -0.4214   -1.4896 H   0  0  0  0  0  0  0  0  0  0  0  0
    0.5880    1.9935   -0.1574 H   0  0  0  0  0  0  0  0  0  0  0  0
    0.0715    4.1704    0.5435 H   0  0  0  0  0  0  0  0  0  0  0  0
    0.3293    5.0996    2.8629 H   0  0  0  0  0  0  0  0  0  0  0  0
    2.1908    0.6043    2.0679 H   0  0  0  0  0  0  0  0  0  0  0  0
    2.7420    1.9724    1.0326 H   0  0  0  0  0  0  0  0  0  0  0  0
  1  2  1  0
  2  3  1  0
  3  4  2  0
  3  5  1  0
  5  6  2  0
  6  7  1  0
  7  8  2  0
  8  9  1  0
  9 10  2  0
  2 11  1  0
 11 12  1  0
 12 13  1  0
 13 14  1  0
 14 15  1  0
 15 16  2  0
 15 17  1  0
 17 18  1  0
 18 19  1  0
 19 20  1  0
 20 21  1  0
 21 22  2  0
 22 23  1  0
 23 24  2  0
 24 25  1  0
 25 26  2  0
 20 27  1  0
 14 28  1  0
 28 29  1  0
 29 30  2  0
 29 31  1  0
 31 32  1  0
 28 33  1  0
 10  5  1  0
 33 11  1  0
 27 17  1  0
 26 21  1  0
  1 34  1  0
  1 35  1  0
  1 36  1  0
  6 37  1  0
  7 38  1  0
  8 39  1  0
  9 40  1  0
 10 41  1  0
 11 42  1  0
 12 43  1  0
 12 44  1  0
 13 45  1  0
 14 46  1  1
 18 47  1  0
 18 48  1  0
 19 49  1  0
 19 50  1  0
 20 51  1  6
 22 52  1  0
 23 53  1  0
 24 54  1  0
 25 55  1  0
 26 56  1  0
 27 57  1  0
 27 58  1  0
 28 59  1  6
 31 60  1  0
 32 61  1  0
 33 62  1  0
 33 63  1  0
M  END
