
     RDKit          3D

 54 57  0  0  0  0  0  0  0  0999 V2000
   -0.7620   -2.3936   -2.7913 C   0  0  0  0  0  0  0  0  0  0  0  0
    0.0059   -1.3080   -2.2879 O   0  0  0  0  0  0  0  0  0  0  0  0
   -0.4845   -0.3199   -1.4159 C   0  0  0  0  0  0  0  0  0  0  0  0
   -1.8383   -0.2685   -1.0320 C   0  0  0  0  0  0  0  0  0  0  0  0
   -2.2943    0.7311   -0.1527 C   0  0  0  0  0  0  0  0  0  0  0  0
   -3.6397    0.8285    0.2696 C   0  0  0  0  0  0  0  0  0  0  0  0
   -4.6603   -0.0323   -0.2670 N   0  0  0  0  0  0  0  0  0  0  0  0
   -5.8280   -0.4309    0.4723 C   0  0  0  0  0  0  0  0  0  0  0  0
   -7.0089   -0.7460   -0.2161 C   0  0  0  0  0  0  0  0  0  0  0  0
   -8.1461   -1.1651    0.4807 C   0  0  0  0  0  0  0  0  0  0  0  0
   -8.1133   -1.2901    1.8726 C   0  0  0  0  0  0  0  0  0  0  0  0
   -9.5599   -1.8336    2.7115 Cl  0  0  0  0  0  0  0  0  0  0  0  0
   -6.9286   -0.9992    2.5709 C   0  0  0  0  0  0  0  0  0  0  0  0
   -6.8282   -1.1840    4.3151 Cl  0  0  0  0  0  0  0  0  0  0  0  0
   -5.7923   -0.5745    1.8705 C   0  0  0  0  0  0  0  0  0  0  0  0
   -3.9867    1.7955    1.1611 N   0  0  0  0  0  0  0  0  0  0  0  0
   -3.0755    2.6714    1.6516 C   0  0  0  0  0  0  0  0  0  0  0  0
   -1.7838    2.6105    1.2463 N   0  0  0  0  0  0  0  0  0  0  0  0
   -1.3715    1.6658    0.3613 C   0  0  0  0  0  0  0  0  0  0  0  0
   -0.0306    1.6212   -0.0291 C   0  0  0  0  0  0  0  0  0  0  0  0
    0.4206    0.6287   -0.9172 C   0  0  0  0  0  0  0  0  0  0  0  0
    1.7607    0.5404   -1.3315 O   0  0  0  0  0  0  0  0  0  0  0  0
    2.8372    1.3572   -0.8691 C   0  0  0  0  0  0  0  0  0  0  0  0
    3.2830    0.9393    0.5520 C   0  0  0  0  0  0  0  0  0  0  0  0
    3.9670   -0.4404    0.5801 C   0  0  0  0  0  0  0  0  0  0  0  0
    5.3570   -0.3488    0.1132 N   0  0  0  0  0  0  0  0  0  0  0  0
    6.0013   -1.5376   -0.4046 C   0  0  0  0  0  0  0  0  0  0  0  0
    7.3922   -1.4999   -0.9500 C   0  0  0  0  0  0  0  0  0  0  0  0
    5.3829   -2.6381   -0.4176 O   0  0  0  0  0  0  0  0  0  0  0  0
    6.1558    0.7791    0.6075 C   0  0  0  0  0  0  0  0  0  0  0  0
    5.3418    2.0746    0.5642 C   0  0  0  0  0  0  0  0  0  0  0  0
    4.0777    1.9318    1.1851 O   0  0  0  0  0  0  0  0  0  0  0  0
   -1.1784   -2.9869   -1.9513 H   0  0  0  0  0  0  0  0  0  0  0  0
   -1.5800   -2.0147   -3.4385 H   0  0  0  0  0  0  0  0  0  0  0  0
   -0.1043   -3.0505   -3.3957 H   0  0  0  0  0  0  0  0  0  0  0  0
   -2.5218   -1.0148   -1.4069 H   0  0  0  0  0  0  0  0  0  0  0  0
   -4.6216   -0.2725   -1.2820 H   0  0  0  0  0  0  0  0  0  0  0  0
   -7.0492   -0.6625   -1.2946 H   0  0  0  0  0  0  0  0  0  0  0  0
   -9.0515   -1.3999   -0.0659 H   0  0  0  0  0  0  0  0  0  0  0  0
   -4.8770   -0.3837    2.4161 H   0  0  0  0  0  0  0  0  0  0  0  0
   -3.3838    3.4292    2.3583 H   0  0  0  0  0  0  0  0  0  0  0  0
    0.6496    2.3599    0.3710 H   0  0  0  0  0  0  0  0  0  0  0  0
    2.5471    2.4295   -0.8960 H   0  0  0  0  0  0  0  0  0  0  0  0
    3.6804    1.2281   -1.5808 H   0  0  0  0  0  0  0  0  0  0  0  0
    2.3648    0.8383    1.1667 H   0  0  0  0  0  0  0  0  0  0  0  0
    3.9654   -0.8275    1.6245 H   0  0  0  0  0  0  0  0  0  0  0  0
    3.3831   -1.1517   -0.0496 H   0  0  0  0  0  0  0  0  0  0  0  0
    7.6800   -2.4992   -1.3370 H   0  0  0  0  0  0  0  0  0  0  0  0
    7.4497   -0.7689   -1.7768 H   0  0  0  0  0  0  0  0  0  0  0  0
    8.1062   -1.2154   -0.1504 H   0  0  0  0  0  0  0  0  0  0  0  0
    6.4765    0.5749    1.6466 H   0  0  0  0  0  0  0  0  0  0  0  0
    7.0624    0.9295   -0.0203 H   0  0  0  0  0  0  0  0  0  0  0  0
    5.2423    2.4402   -0.4798 H   0  0  0  0  0  0  0  0  0  0  0  0
    5.9095    2.8544    1.1122 H   0  0  0  0  0  0  0  0  0  0  0  0
  1  2  1  0
  2  3  1  0
  3  4  2  0
  4  5  1  0
  5  6  2  0
  6  7  1  0
  7  8  1  0
  8  9  2  0
  9 10  1  0
 10 11  2  0
 11 12  1  0
 11 13  1  0
 13 14  1  0
 13 15  2  0
  6 16  1  0
 16 17  2  0
 17 18  1  0
 18 19  2  0
 19 20  1  0
 20 21  2  0
 21 22  1  0
 22 23  1  0
 23 24  1  0
 24 25  1  0
 25 26  1  0
 26 27  1  0
 27 28  1  0
 27 29  2  0
 26 30  1  0
 30 31  1  0
 31 32  1  0
 21  3  1  0
 32 24  1  0
 19  5  1  0
 15  8  1  0
  1 33  1  0
  1 34  1  0
  1 35  1  0
  4 36  1  0
  7 37  1  0
  9 38  1  0
 10 39  1  0
 15 40  1  0
 17 41  1  0
 20 42  1  0
 23 43  1  0
 23 44  1  0
 24 45  1  0
 25 46  1  0
 25 47  1  0
 28 48  1  0
 28 49  1  0
 28 50  1  0
 30 51  1  0
 30 52  1  0
 31 53  1  0
 31 54  1  0
M  END
