
     RDKit          3D

 54 58  0  0  0  0  0  0  0  0999 V2000
    1.4018    3.4915    1.6436 C   0  0  0  0  0  0  0  0  0  0  0  0
    0.6481    2.9381    0.5699 O   0  0  0  0  0  0  0  0  0  0  0  0
    0.9501    1.7296   -0.0790 C   0  0  0  0  0  0  0  0  0  0  0  0
    2.0676    0.9497    0.2782 C   0  0  0  0  0  0  0  0  0  0  0  0
    2.3467   -0.2501   -0.3999 C   0  0  0  0  0  0  0  0  0  0  0  0
    3.4723   -1.0506   -0.1066 C   0  0  0  0  0  0  0  0  0  0  0  0
    4.3633   -0.7263    0.9737 N   0  0  0  0  0  0  0  0  0  0  0  0
    5.7858   -0.9257    0.9088 C   0  0  0  0  0  0  0  0  0  0  0  0
    6.5163   -1.0859    2.0950 C   0  0  0  0  0  0  0  0  0  0  0  0
    7.9020   -1.2555    2.0570 C   0  0  0  0  0  0  0  0  0  0  0  0
    8.5787   -1.2568    0.8329 C   0  0  0  0  0  0  0  0  0  0  0  0
   10.3260   -1.4640    0.8227 Cl  0  0  0  0  0  0  0  0  0  0  0  0
    7.8609   -1.0771   -0.3619 C   0  0  0  0  0  0  0  0  0  0  0  0
    8.6750   -1.0498   -1.9208 Cl  0  0  0  0  0  0  0  0  0  0  0  0
    6.4719   -0.9101   -0.3212 C   0  0  0  0  0  0  0  0  0  0  0  0
    3.6956   -2.1785   -0.8354 N   0  0  0  0  0  0  0  0  0  0  0  0
    2.8625   -2.5528   -1.8391 C   0  0  0  0  0  0  0  0  0  0  0  0
    1.7731   -1.8010   -2.1364 N   0  0  0  0  0  0  0  0  0  0  0  0
    1.4972   -0.6637   -1.4470 C   0  0  0  0  0  0  0  0  0  0  0  0
    0.3823    0.1036   -1.7940 C   0  0  0  0  0  0  0  0  0  0  0  0
    0.1045    1.3060   -1.1169 C   0  0  0  0  0  0  0  0  0  0  0  0
   -0.9887    2.1224   -1.4527 O   0  0  0  0  0  0  0  0  0  0  0  0
   -2.0025    1.8090   -2.4079 C   0  0  0  0  0  0  0  0  0  0  0  0
   -2.9616    0.8135   -1.8393 C   0  0  0  0  0  0  0  0  0  0  0  0
   -4.0465    1.1474   -1.1147 N   0  0  0  0  0  0  0  0  0  0  0  0
   -4.5541   -0.0699   -0.8281 C   0  0  0  0  0  0  0  0  0  0  0  0
   -5.7613   -0.2715   -0.0697 N   0  0  0  0  0  0  0  0  0  0  0  0
   -6.6419    0.8721    0.1977 C   0  0  0  0  0  0  0  0  0  0  0  0
   -7.5444    0.5858    1.4020 C   0  0  0  0  0  0  0  0  0  0  0  0
   -8.1934   -0.6624    1.2585 O   0  0  0  0  0  0  0  0  0  0  0  0
   -7.2327   -1.6987    1.2987 C   0  0  0  0  0  0  0  0  0  0  0  0
   -6.3012   -1.6272    0.0840 C   0  0  0  0  0  0  0  0  0  0  0  0
   -3.8176   -1.0749   -1.3430 N   0  0  0  0  0  0  0  0  0  0  0  0
   -2.8396   -0.4848   -1.9600 O   0  0  0  0  0  0  0  0  0  0  0  0
    1.4088    2.7917    2.5051 H   0  0  0  0  0  0  0  0  0  0  0  0
    2.4398    3.7026    1.3127 H   0  0  0  0  0  0  0  0  0  0  0  0
    0.9316    4.4435    1.9640 H   0  0  0  0  0  0  0  0  0  0  0  0
    2.7262    1.2936    1.0615 H   0  0  0  0  0  0  0  0  0  0  0  0
    3.9462   -0.4310    1.8853 H   0  0  0  0  0  0  0  0  0  0  0  0
    6.0090   -1.0867    3.0519 H   0  0  0  0  0  0  0  0  0  0  0  0
    8.4504   -1.3873    2.9817 H   0  0  0  0  0  0  0  0  0  0  0  0
    5.9349   -0.7452   -1.2460 H   0  0  0  0  0  0  0  0  0  0  0  0
    3.0653   -3.4541   -2.4007 H   0  0  0  0  0  0  0  0  0  0  0  0
   -0.2461   -0.2376   -2.6045 H   0  0  0  0  0  0  0  0  0  0  0  0
   -1.5595    1.4420   -3.3575 H   0  0  0  0  0  0  0  0  0  0  0  0
   -2.5589    2.7406   -2.6455 H   0  0  0  0  0  0  0  0  0  0  0  0
   -6.0452    1.7865    0.4120 H   0  0  0  0  0  0  0  0  0  0  0  0
   -7.2703    1.0622   -0.6986 H   0  0  0  0  0  0  0  0  0  0  0  0
   -8.3184    1.3810    1.4571 H   0  0  0  0  0  0  0  0  0  0  0  0
   -6.9614    0.6327    2.3499 H   0  0  0  0  0  0  0  0  0  0  0  0
   -6.6435   -1.6670    2.2440 H   0  0  0  0  0  0  0  0  0  0  0  0
   -7.7647   -2.6736    1.2821 H   0  0  0  0  0  0  0  0  0  0  0  0
   -6.8634   -1.9022   -0.8347 H   0  0  0  0  0  0  0  0  0  0  0  0
   -5.4772   -2.3602    0.2309 H   0  0  0  0  0  0  0  0  0  0  0  0
  1  2  1  0
  2  3  1  0
  3  4  2  0
  4  5  1  0
  5  6  2  0
  6  7  1  0
  7  8  1  0
  8  9  2  0
  9 10  1  0
 10 11  2  0
 11 12  1  0
 11 13  1  0
 13 14  1  0
 13 15  2  0
  6 16  1  0
 16 17  2  0
 17 18  1  0
 18 19  2  0
 19 20  1  0
 20 21  2  0
 21 22  1  0
 22 23  1  0
 23 24  1  0
 24 25  2  0
 25 26  1  0
 26 27  1  0
 27 28  1  0
 28 29  1  0
 29 30  1  0
 30 31  1  0
 31 32  1  0
 26 33  2  0
 33 34  1  0
 21  3  1  0
 34 24  1  0
 19  5  1  0
 32 27  1  0
 15  8  1  0
  1 35  1  0
  1 36  1  0
  1 37  1  0
  4 38  1  0
  7 39  1  0
  9 40  1  0
 10 41  1  0
 15 42  1  0
 17 43  1  0
 20 44  1  0
 23 45  1  0
 23 46  1  0
 28 47  1  0
 28 48  1  0
 29 49  1  0
 29 50  1  0
 31 51  1  0
 31 52  1  0
 32 53  1  0
 32 54  1  0
M  END
