
     RDKit          3D

 60 62  0  0  0  0  0  0  0  0999 V2000
    9.0533   -0.4117   -3.9703 C   0  0  0  0  0  0  0  0  0  0  0  0
    8.5931    0.1916   -3.0337 C   0  0  0  0  0  0  0  0  0  0  0  0
    8.0439    0.9118   -1.9139 C   0  0  0  0  0  0  0  0  0  0  0  0
    8.7417    1.9956   -1.3688 C   0  0  0  0  0  0  0  0  0  0  0  0
    8.2031    2.7024   -0.2911 C   0  0  0  0  0  0  0  0  0  0  0  0
    6.9733    2.3222    0.2531 C   0  0  0  0  0  0  0  0  0  0  0  0
    6.2735    1.2234   -0.2696 C   0  0  0  0  0  0  0  0  0  0  0  0
    5.0009    0.8611    0.2947 N   0  0  0  0  0  0  0  0  0  0  0  0
    4.4818   -0.4801    0.2755 C   0  0  0  0  0  0  0  0  0  0  0  0
    5.3466   -1.5291    0.3491 N   0  0  0  0  0  0  0  0  0  0  0  0
    4.9103   -2.8134    0.3818 C   0  0  0  0  0  0  0  0  0  0  0  0
    3.5817   -3.0821    0.3512 N   0  0  0  0  0  0  0  0  0  0  0  0
    2.6672   -2.0811    0.2804 C   0  0  0  0  0  0  0  0  0  0  0  0
    1.3042   -2.3879    0.2418 C   0  0  0  0  0  0  0  0  0  0  0  0
    0.3559   -1.3672    0.1496 C   0  0  0  0  0  0  0  0  0  0  0  0
    0.7638   -0.0212    0.0892 C   0  0  0  0  0  0  0  0  0  0  0  0
   -0.1522    1.0363   -0.0157 O   0  0  0  0  0  0  0  0  0  0  0  0
   -1.5648    0.8714   -0.1039 C   0  0  0  0  0  0  0  0  0  0  0  0
   -2.2313    2.2437   -0.2115 C   0  0  0  0  0  0  0  0  0  0  0  0
   -3.7459    2.1207   -0.3783 C   0  0  0  0  0  0  0  0  0  0  0  0
   -4.2975    1.5331    0.7762 O   0  0  0  0  0  0  0  0  0  0  0  0
   -5.9412    1.1445    0.5033 P   0  0  0  0  0  0  0  0  0  0  0  0
   -6.5065    1.6441   -1.0837 N   0  0  0  0  0  0  0  0  0  0  0  0
   -6.7792    1.8573    1.5417 O   0  0  0  0  0  0  0  0  0  0  0  0
   -6.1508   -0.6078    0.6911 N   0  0  0  0  0  0  0  0  0  0  0  0
   -5.3597   -1.3332   -0.3308 C   0  0  0  0  0  0  0  0  0  0  0  0
   -6.2514   -1.7213   -1.5069 C   0  0  0  0  0  0  0  0  0  0  0  0
   -5.3194   -2.6595   -2.7010 Cl  0  0  0  0  0  0  0  0  0  0  0  0
   -5.7596   -1.0031    2.0602 C   0  0  0  0  0  0  0  0  0  0  0  0
   -6.4587   -2.3033    2.4614 C   0  0  0  0  0  0  0  0  0  0  0  0
   -6.0487   -2.7264    4.1421 Cl  0  0  0  0  0  0  0  0  0  0  0  0
    2.1295    0.2868    0.1310 C   0  0  0  0  0  0  0  0  0  0  0  0
    3.0933   -0.7347    0.2376 C   0  0  0  0  0  0  0  0  0  0  0  0
    6.8099    0.5300   -1.3709 C   0  0  0  0  0  0  0  0  0  0  0  0
    9.4575   -0.9413   -4.7928 H   0  0  0  0  0  0  0  0  0  0  0  0
    9.6963    2.2991   -1.7818 H   0  0  0  0  0  0  0  0  0  0  0  0
    8.7396    3.5461    0.1237 H   0  0  0  0  0  0  0  0  0  0  0  0
    6.5688    2.8787    1.0891 H   0  0  0  0  0  0  0  0  0  0  0  0
    4.4918    1.5823    0.8527 H   0  0  0  0  0  0  0  0  0  0  0  0
    5.6237   -3.6240    0.4383 H   0  0  0  0  0  0  0  0  0  0  0  0
    0.9766   -3.4198    0.2786 H   0  0  0  0  0  0  0  0  0  0  0  0
   -0.6912   -1.6358    0.1198 H   0  0  0  0  0  0  0  0  0  0  0  0
   -1.8099    0.2667   -1.0048 H   0  0  0  0  0  0  0  0  0  0  0  0
   -1.9340    0.3478    0.8050 H   0  0  0  0  0  0  0  0  0  0  0  0
   -2.0051    2.8391    0.6999 H   0  0  0  0  0  0  0  0  0  0  0  0
   -1.8146    2.7825   -1.0903 H   0  0  0  0  0  0  0  0  0  0  0  0
   -3.9416    1.5130   -1.2909 H   0  0  0  0  0  0  0  0  0  0  0  0
   -4.1648    3.1419   -0.5173 H   0  0  0  0  0  0  0  0  0  0  0  0
   -6.5265    2.6885   -1.0883 H   0  0  0  0  0  0  0  0  0  0  0  0
   -7.5002    1.3322   -1.1616 H   0  0  0  0  0  0  0  0  0  0  0  0
   -4.4928   -0.7406   -0.6942 H   0  0  0  0  0  0  0  0  0  0  0  0
   -4.9294   -2.2747    0.0760 H   0  0  0  0  0  0  0  0  0  0  0  0
   -6.6522   -0.8191   -2.0092 H   0  0  0  0  0  0  0  0  0  0  0  0
   -7.1002   -2.3407   -1.1474 H   0  0  0  0  0  0  0  0  0  0  0  0
   -4.6544   -1.1138    2.1464 H   0  0  0  0  0  0  0  0  0  0  0  0
   -6.0733   -0.2340    2.8000 H   0  0  0  0  0  0  0  0  0  0  0  0
   -6.1490   -3.1421    1.8056 H   0  0  0  0  0  0  0  0  0  0  0  0
   -7.5594   -2.1778    2.3834 H   0  0  0  0  0  0  0  0  0  0  0  0
    2.4195    1.3261    0.0614 H   0  0  0  0  0  0  0  0  0  0  0  0
    6.2649   -0.2935   -1.8157 H   0  0  0  0  0  0  0  0  0  0  0  0
  1  2  3  0
  2  3  1  0
  3  4  2  0
  4  5  1  0
  5  6  2  0
  6  7  1  0
  7  8  1  0
  8  9  1  0
  9 10  2  0
 10 11  1  0
 11 12  2  0
 12 13  1  0
 13 14  2  0
 14 15  1  0
 15 16  2  0
 16 17  1  0
 17 18  1  0
 18 19  1  0
 19 20  1  0
 20 21  1  0
 21 22  1  0
 22 23  1  0
 22 24  2  0
 22 25  1  0
 25 26  1  0
 26 27  1  0
 27 28  1  0
 25 29  1  0
 29 30  1  0
 30 31  1  0
 16 32  1  0
 32 33  2  0
  7 34  2  0
 34  3  1  0
 33  9  1  0
 33 13  1  0
  1 35  1  0
  4 36  1  0
  5 37  1  0
  6 38  1  0
  8 39  1  0
 11 40  1  0
 14 41  1  0
 15 42  1  0
 18 43  1  0
 18 44  1  0
 19 45  1  0
 19 46  1  0
 20 47  1  0
 20 48  1  0
 23 49  1  0
 23 50  1  0
 26 51  1  0
 26 52  1  0
 27 53  1  0
 27 54  1  0
 29 55  1  0
 29 56  1  0
 30 57  1  0
 30 58  1  0
 32 59  1  0
 34 60  1  0
M  END
