
     RDKit          3D

 44 47  0  0  0  0  0  0  0  0999 V2000
    7.4587    0.6608   -0.0318 C   0  0  0  0  0  0  0  0  0  0  0  0
    6.6686   -0.0818   -0.9547 O   0  0  0  0  0  0  0  0  0  0  0  0
    5.2700   -0.1800   -0.9025 C   0  0  0  0  0  0  0  0  0  0  0  0
    4.6234   -0.9470   -1.8783 C   0  0  0  0  0  0  0  0  0  0  0  0
    3.2327   -1.0805   -1.8759 C   0  0  0  0  0  0  0  0  0  0  0  0
    2.4651   -0.4452   -0.8900 C   0  0  0  0  0  0  0  0  0  0  0  0
    1.0677   -0.5738   -0.8785 C   0  0  0  0  0  0  0  0  0  0  0  0
    0.3068    0.0496    0.1211 C   0  0  0  0  0  0  0  0  0  0  0  0
   -1.1617   -0.0585    0.0961 C   0  0  0  0  0  0  0  0  0  0  0  0
   -1.8959    0.2111   -1.0124 N   0  0  0  0  0  0  0  0  0  0  0  0
   -3.1832    0.1548   -0.6896 N   0  0  0  0  0  0  0  0  0  0  0  0
   -4.2678    0.4095   -1.6443 C   0  0  0  0  0  0  0  0  0  0  0  0
   -5.1656   -0.8228   -1.7911 C   0  0  0  0  0  0  0  0  0  0  0  0
   -5.0740    1.6457   -1.2351 C   0  0  0  0  0  0  0  0  0  0  0  0
   -3.2724   -0.1446    0.6202 C   0  0  0  0  0  0  0  0  0  0  0  0
   -4.4029   -0.2710    1.3565 N   0  0  0  0  0  0  0  0  0  0  0  0
   -4.2822   -0.5850    2.6791 C   0  0  0  0  0  0  0  0  0  0  0  0
   -3.0472   -0.7954    3.2326 N   0  0  0  0  0  0  0  0  0  0  0  0
   -1.9012   -0.6777    2.4982 C   0  0  0  0  0  0  0  0  0  0  0  0
   -0.6464   -1.0185    3.0892 N   0  0  0  0  0  0  0  0  0  0  0  0
   -2.0294   -0.3065    1.1550 C   0  0  0  0  0  0  0  0  0  0  0  0
    0.9471    0.8427    1.0859 C   0  0  0  0  0  0  0  0  0  0  0  0
    2.3377    0.9765    1.0828 C   0  0  0  0  0  0  0  0  0  0  0  0
    3.1067    0.3339    0.1014 C   0  0  0  0  0  0  0  0  0  0  0  0
    4.5046    0.4625    0.0902 C   0  0  0  0  0  0  0  0  0  0  0  0
    7.3210    0.2626    0.9957 H   0  0  0  0  0  0  0  0  0  0  0  0
    7.1785    1.7348   -0.0669 H   0  0  0  0  0  0  0  0  0  0  0  0
    8.5281    0.5637   -0.3098 H   0  0  0  0  0  0  0  0  0  0  0  0
    5.2045   -1.4437   -2.6451 H   0  0  0  0  0  0  0  0  0  0  0  0
    2.7586   -1.6806   -2.6435 H   0  0  0  0  0  0  0  0  0  0  0  0
    0.5708   -1.1662   -1.6391 H   0  0  0  0  0  0  0  0  0  0  0  0
   -3.8208    0.6172   -2.6423 H   0  0  0  0  0  0  0  0  0  0  0  0
   -4.5503   -1.7069   -2.0621 H   0  0  0  0  0  0  0  0  0  0  0  0
   -5.7071   -1.0386   -0.8465 H   0  0  0  0  0  0  0  0  0  0  0  0
   -5.9119   -0.6550   -2.5965 H   0  0  0  0  0  0  0  0  0  0  0  0
   -5.6104    1.4749   -0.2784 H   0  0  0  0  0  0  0  0  0  0  0  0
   -5.8202    1.8898   -2.0210 H   0  0  0  0  0  0  0  0  0  0  0  0
   -4.3942    2.5158   -1.1148 H   0  0  0  0  0  0  0  0  0  0  0  0
   -5.1687   -0.6873    3.2895 H   0  0  0  0  0  0  0  0  0  0  0  0
    0.1859   -1.2510    2.5068 H   0  0  0  0  0  0  0  0  0  0  0  0
   -0.5894   -1.1985    4.1160 H   0  0  0  0  0  0  0  0  0  0  0  0
    0.3679    1.3624    1.8393 H   0  0  0  0  0  0  0  0  0  0  0  0
    2.8105    1.5868    1.8430 H   0  0  0  0  0  0  0  0  0  0  0  0
    4.9883    1.0609    0.8516 H   0  0  0  0  0  0  0  0  0  0  0  0
  1  2  1  0
  2  3  1  0
  3  4  2  0
  4  5  1  0
  5  6  2  0
  6  7  1  0
  7  8  2  0
  8  9  1  0
  9 10  2  0
 10 11  1  0
 11 12  1  0
 12 13  1  0
 12 14  1  0
 11 15  1  0
 15 16  2  0
 16 17  1  0
 17 18  2  0
 18 19  1  0
 19 20  1  0
 19 21  2  0
  8 22  1  0
 22 23  2  0
 23 24  1  0
 24 25  2  0
 25  3  1  0
 24  6  1  0
 21  9  1  0
 21 15  1  0
  1 26  1  0
  1 27  1  0
  1 28  1  0
  4 29  1  0
  5 30  1  0
  7 31  1  0
 12 32  1  0
 13 33  1  0
 13 34  1  0
 13 35  1  0
 14 36  1  0
 14 37  1  0
 14 38  1  0
 17 39  1  0
 20 40  1  0
 20 41  1  0
 22 42  1  0
 23 43  1  0
 25 44  1  0
M  END
