
     RDKit          3D

 57 61  0  0  0  0  0  0  0  0999 V2000
    1.4196    0.1699   -3.9863 C   0  0  0  0  0  0  0  0  0  0  0  0
    0.5673   -0.1327   -2.8865 O   0  0  0  0  0  0  0  0  0  0  0  0
    0.9960   -0.2507   -1.5537 C   0  0  0  0  0  0  0  0  0  0  0  0
    2.3384   -0.0429   -1.1779 C   0  0  0  0  0  0  0  0  0  0  0  0
    2.7345   -0.1677    0.1681 C   0  0  0  0  0  0  0  0  0  0  0  0
    4.0622    0.0521    0.6049 C   0  0  0  0  0  0  0  0  0  0  0  0
    5.0728    0.5585   -0.2858 N   0  0  0  0  0  0  0  0  0  0  0  0
    6.4865    0.3918   -0.0657 C   0  0  0  0  0  0  0  0  0  0  0  0
    6.9967   -0.7683    0.5477 C   0  0  0  0  0  0  0  0  0  0  0  0
    8.3751   -0.9267    0.7377 C   0  0  0  0  0  0  0  0  0  0  0  0
    8.9673   -2.3921    1.5144 Cl  0  0  0  0  0  0  0  0  0  0  0  0
    9.2586    0.0762    0.3047 C   0  0  0  0  0  0  0  0  0  0  0  0
   10.9921   -0.0777    0.5309 Cl  0  0  0  0  0  0  0  0  0  0  0  0
    8.7568    1.2241   -0.3170 C   0  0  0  0  0  0  0  0  0  0  0  0
    7.3817    1.3784   -0.5117 C   0  0  0  0  0  0  0  0  0  0  0  0
    6.9207    2.4986   -1.1218 F   0  0  0  0  0  0  0  0  0  0  0  0
    4.3658   -0.1393    1.9178 N   0  0  0  0  0  0  0  0  0  0  0  0
    3.4308   -0.5388    2.8161 C   0  0  0  0  0  0  0  0  0  0  0  0
    2.1479   -0.7342    2.4234 N   0  0  0  0  0  0  0  0  0  0  0  0
    1.7776   -0.5549    1.1305 C   0  0  0  0  0  0  0  0  0  0  0  0
    0.4455   -0.7562    0.7587 C   0  0  0  0  0  0  0  0  0  0  0  0
    0.0440   -0.5853   -0.5798 C   0  0  0  0  0  0  0  0  0  0  0  0
   -1.2926   -0.7343   -0.9837 O   0  0  0  0  0  0  0  0  0  0  0  0
   -2.3855   -0.9767   -0.0999 C   0  0  0  0  0  0  0  0  0  0  0  0
   -3.7053   -0.8822   -0.8793 C   0  0  1  0  0  0  0  0  0  0  0  0
   -4.9363   -1.1416    0.0262 C   0  0  0  0  0  0  0  0  0  0  0  0
   -6.0687   -0.3467   -0.4742 N   0  0  0  0  0  0  0  0  0  0  0  0
   -7.3508   -0.7004    0.1662 C   0  0  0  0  0  0  0  0  0  0  0  0
   -7.5128   -0.0282    1.5314 C   0  0  0  0  0  0  0  0  0  0  0  0
   -7.3875    1.3705    1.4056 O   0  0  0  0  0  0  0  0  0  0  0  0
   -6.0765    1.6878    0.9909 C   0  0  0  0  0  0  0  0  0  0  0  0
   -5.7782    1.1038   -0.4081 C   0  0  1  0  0  0  0  0  0  0  0  0
   -4.3119    1.3901   -0.8135 C   0  0  0  0  0  0  0  0  0  0  0  0
   -3.7878    0.3423   -1.6068 O   0  0  0  0  0  0  0  0  0  0  0  0
    2.2151   -0.5967   -4.0804 H   0  0  0  0  0  0  0  0  0  0  0  0
    1.8719    1.1732   -3.8560 H   0  0  0  0  0  0  0  0  0  0  0  0
    0.8197    0.1722   -4.9133 H   0  0  0  0  0  0  0  0  0  0  0  0
    3.0664    0.1945   -1.9379 H   0  0  0  0  0  0  0  0  0  0  0  0
    4.7772    1.2271   -1.0284 H   0  0  0  0  0  0  0  0  0  0  0  0
    6.3296   -1.5618    0.8662 H   0  0  0  0  0  0  0  0  0  0  0  0
    9.4342    1.9988   -0.6537 H   0  0  0  0  0  0  0  0  0  0  0  0
    3.7071   -0.6877    3.8499 H   0  0  0  0  0  0  0  0  0  0  0  0
   -0.2705   -1.0443    1.5171 H   0  0  0  0  0  0  0  0  0  0  0  0
   -2.3762   -0.2290    0.7225 H   0  0  0  0  0  0  0  0  0  0  0  0
   -2.2860   -1.9944    0.3406 H   0  0  0  0  0  0  0  0  0  0  0  0
   -3.6877   -1.6958   -1.6395 H   0  0  0  0  0  0  0  0  0  0  0  0
   -4.7148   -0.8774    1.0850 H   0  0  0  0  0  0  0  0  0  0  0  0
   -5.1799   -2.2288   -0.0027 H   0  0  0  0  0  0  0  0  0  0  0  0
   -8.1784   -0.3664   -0.4920 H   0  0  0  0  0  0  0  0  0  0  0  0
   -7.4534   -1.8002    0.2734 H   0  0  0  0  0  0  0  0  0  0  0  0
   -8.5278   -0.2576    1.9179 H   0  0  0  0  0  0  0  0  0  0  0  0
   -6.7883   -0.4362    2.2709 H   0  0  0  0  0  0  0  0  0  0  0  0
   -5.3349    1.3433    1.7466 H   0  0  0  0  0  0  0  0  0  0  0  0
   -5.9856    2.7933    0.9384 H   0  0  0  0  0  0  0  0  0  0  0  0
   -6.4414    1.6130   -1.1406 H   0  0  0  0  0  0  0  0  0  0  0  0
   -4.2781    2.3309   -1.4038 H   0  0  0  0  0  0  0  0  0  0  0  0
   -3.6621    1.5636    0.0721 H   0  0  0  0  0  0  0  0  0  0  0  0
  1  2  1  0
  2  3  1  0
  3  4  2  0
  4  5  1  0
  5  6  2  0
  6  7  1  0
  7  8  1  0
  8  9  2  0
  9 10  1  0
 10 11  1  0
 10 12  2  0
 12 13  1  0
 12 14  1  0
 14 15  2  0
 15 16  1  0
  6 17  1  0
 17 18  2  0
 18 19  1  0
 19 20  2  0
 20 21  1  0
 21 22  2  0
 22 23  1  0
 23 24  1  0
 24 25  1  0
 25 26  1  0
 26 27  1  0
 27 28  1  0
 28 29  1  0
 29 30  1  0
 30 31  1  0
 31 32  1  0
 32 33  1  0
 33 34  1  0
 22  3  1  0
 34 25  1  0
 20  5  1  0
 32 27  1  0
 15  8  1  0
  1 35  1  0
  1 36  1  0
  1 37  1  0
  4 38  1  0
  7 39  1  0
  9 40  1  0
 14 41  1  0
 18 42  1  0
 21 43  1  0
 24 44  1  0
 24 45  1  0
 25 46  1  6
 26 47  1  0
 26 48  1  0
 28 49  1  0
 28 50  1  0
 29 51  1  0
 29 52  1  0
 31 53  1  0
 31 54  1  0
 32 55  1  6
 33 56  1  0
 33 57  1  0
M  END
