
     RDKit          3D

 65 69  0  0  0  0  0  0  0  0999 V2000
    9.5714    1.5261    0.0498 C   0  0  0  0  0  0  0  0  0  0  0  0
    8.8269    0.4861   -0.7846 C   0  0  0  0  0  0  0  0  0  0  0  0
    7.6986   -0.0922   -0.0224 N   0  0  0  0  0  0  0  0  0  0  0  0
    7.3409   -1.4148   -0.5681 C   0  0  0  0  0  0  0  0  0  0  0  0
    6.2115   -2.0407    0.2606 C   0  0  0  0  0  0  0  0  0  0  0  0
    5.0142   -1.1779    0.3066 N   0  0  0  0  0  0  0  0  0  0  0  0
    4.2442   -1.2122   -0.9563 C   0  0  0  0  0  0  0  0  0  0  0  0
    2.8340   -0.7347   -0.7290 C   0  0  0  0  0  0  0  0  0  0  0  0
    1.9642   -1.4786    0.0799 C   0  0  0  0  0  0  0  0  0  0  0  0
    0.6591   -1.0348    0.3097 C   0  0  0  0  0  0  0  0  0  0  0  0
    0.1995    0.1650   -0.2643 C   0  0  0  0  0  0  0  0  0  0  0  0
   -1.1860    0.6393   -0.0181 C   0  0  0  0  0  0  0  0  0  0  0  0
   -2.2540   -0.1601    0.4060 C   0  0  0  0  0  0  0  0  0  0  0  0
   -3.3301    0.6973    0.5022 C   0  0  0  0  0  0  0  0  0  0  0  0
   -4.6616    0.5097    0.8715 C   0  0  0  0  0  0  0  0  0  0  0  0
   -5.1616   -0.7864    1.2482 N   0  0  0  0  0  0  0  0  0  0  0  0
   -6.5452   -1.0545    1.6584 C   0  0  1  0  0  0  0  0  0  0  0  0
   -6.8495   -0.3988    3.0130 C   0  0  0  0  0  0  0  0  0  0  0  0
   -7.5163   -0.7086    0.5403 C   0  0  0  0  0  0  0  0  0  0  0  0
   -7.5675   -1.5488   -0.5872 C   0  0  0  0  0  0  0  0  0  0  0  0
   -8.4217   -1.2571   -1.6547 C   0  0  0  0  0  0  0  0  0  0  0  0
   -9.2295   -0.1192   -1.6146 C   0  0  0  0  0  0  0  0  0  0  0  0
   -9.1831    0.7302   -0.5078 C   0  0  0  0  0  0  0  0  0  0  0  0
   -8.3319    0.4433    0.5636 C   0  0  0  0  0  0  0  0  0  0  0  0
   -5.4764    1.6073    0.8576 N   0  0  0  0  0  0  0  0  0  0  0  0
   -5.0124    2.8450    0.4991 C   0  0  0  0  0  0  0  0  0  0  0  0
   -3.7062    3.0171    0.1402 N   0  0  0  0  0  0  0  0  0  0  0  0
   -2.8899    1.9362    0.1476 C   0  0  0  0  0  0  0  0  0  0  0  0
   -1.5883    1.9272   -0.1738 N   0  0  0  0  0  0  0  0  0  0  0  0
    1.0774    0.9078   -1.0752 C   0  0  0  0  0  0  0  0  0  0  0  0
    2.3827    0.4626   -1.3036 C   0  0  0  0  0  0  0  0  0  0  0  0
    5.3606    0.1922    0.7454 C   0  0  0  0  0  0  0  0  0  0  0  0
    6.5203    0.7970   -0.0626 C   0  0  0  0  0  0  0  0  0  0  0  0
    8.9506    2.4327    0.2021 H   0  0  0  0  0  0  0  0  0  0  0  0
   10.4998    1.8304   -0.4786 H   0  0  0  0  0  0  0  0  0  0  0  0
    9.8469    1.0975    1.0371 H   0  0  0  0  0  0  0  0  0  0  0  0
    8.4842    0.9416   -1.7412 H   0  0  0  0  0  0  0  0  0  0  0  0
    9.5683   -0.3034   -1.0436 H   0  0  0  0  0  0  0  0  0  0  0  0
    8.2170   -2.0976   -0.5088 H   0  0  0  0  0  0  0  0  0  0  0  0
    7.0394   -1.3380   -1.6372 H   0  0  0  0  0  0  0  0  0  0  0  0
    5.9594   -3.0444   -0.1466 H   0  0  0  0  0  0  0  0  0  0  0  0
    6.5762   -2.2058    1.2981 H   0  0  0  0  0  0  0  0  0  0  0  0
    4.1769   -2.2545   -1.3388 H   0  0  0  0  0  0  0  0  0  0  0  0
    4.7414   -0.6195   -1.7526 H   0  0  0  0  0  0  0  0  0  0  0  0
    2.3006   -2.4004    0.5386 H   0  0  0  0  0  0  0  0  0  0  0  0
    0.0203   -1.6253    0.9524 H   0  0  0  0  0  0  0  0  0  0  0  0
   -2.2472   -1.2229    0.6038 H   0  0  0  0  0  0  0  0  0  0  0  0
   -4.5116   -1.6032    1.2117 H   0  0  0  0  0  0  0  0  0  0  0  0
   -6.6402   -2.1501    1.8351 H   0  0  0  0  0  0  0  0  0  0  0  0
   -7.8988   -0.6090    3.3123 H   0  0  0  0  0  0  0  0  0  0  0  0
   -6.1760   -0.8204    3.7893 H   0  0  0  0  0  0  0  0  0  0  0  0
   -6.6914    0.6982    2.9853 H   0  0  0  0  0  0  0  0  0  0  0  0
   -6.9412   -2.4316   -0.6399 H   0  0  0  0  0  0  0  0  0  0  0  0
   -8.4543   -1.9125   -2.5156 H   0  0  0  0  0  0  0  0  0  0  0  0
   -9.8880    0.1068   -2.4434 H   0  0  0  0  0  0  0  0  0  0  0  0
   -9.8055    1.6155   -0.4805 H   0  0  0  0  0  0  0  0  0  0  0  0
   -8.3146    1.1289    1.3988 H   0  0  0  0  0  0  0  0  0  0  0  0
   -5.6854    3.6912    0.5004 H   0  0  0  0  0  0  0  0  0  0  0  0
   -1.0162    2.7528   -0.4573 H   0  0  0  0  0  0  0  0  0  0  0  0
    0.7568    1.8263   -1.5482 H   0  0  0  0  0  0  0  0  0  0  0  0
    3.0413    1.0544   -1.9280 H   0  0  0  0  0  0  0  0  0  0  0  0
    4.4771    0.8628    0.6828 H   0  0  0  0  0  0  0  0  0  0  0  0
    5.6524    0.1597    1.8181 H   0  0  0  0  0  0  0  0  0  0  0  0
    6.7677    1.7762    0.3980 H   0  0  0  0  0  0  0  0  0  0  0  0
    6.2000    0.9935   -1.1093 H   0  0  0  0  0  0  0  0  0  0  0  0
  1  2  1  0
  2  3  1  0
  3  4  1  0
  4  5  1  0
  5  6  1  0
  6  7  1  0
  7  8  1  0
  8  9  2  0
  9 10  1  0
 10 11  2  0
 11 12  1  0
 12 13  2  0
 13 14  1  0
 14 15  2  0
 15 16  1  0
 16 17  1  0
 17 18  1  0
 17 19  1  0
 19 20  2  0
 20 21  1  0
 21 22  2  0
 22 23  1  0
 23 24  2  0
 15 25  1  0
 25 26  2  0
 26 27  1  0
 27 28  2  0
 28 29  1  0
 11 30  1  0
 30 31  2  0
  6 32  1  0
 32 33  1  0
 33  3  1  0
 31  8  1  0
 29 12  1  0
 28 14  1  0
 24 19  1  0
  1 34  1  0
  1 35  1  0
  1 36  1  0
  2 37  1  0
  2 38  1  0
  4 39  1  0
  4 40  1  0
  5 41  1  0
  5 42  1  0
  7 43  1  0
  7 44  1  0
  9 45  1  0
 10 46  1  0
 13 47  1  0
 16 48  1  0
 17 49  1  1
 18 50  1  0
 18 51  1  0
 18 52  1  0
 20 53  1  0
 21 54  1  0
 22 55  1  0
 23 56  1  0
 24 57  1  0
 26 58  1  0
 29 59  1  0
 30 60  1  0
 31 61  1  0
 32 62  1  0
 32 63  1  0
 33 64  1  0
 33 65  1  0
M  END
