
     RDKit          3D

 56 60  0  0  0  0  0  0  0  0999 V2000
    3.5568   -2.6290   -0.4012 O   0  0  0  0  0  0  0  0  0  0  0  0
    2.3684   -2.8911   -0.0707 C   0  0  0  0  0  0  0  0  0  0  0  0
    2.0600   -4.2316    0.5261 C   0  0  0  0  0  0  0  0  0  0  0  0
    0.6846   -4.5652    0.3571 O   0  0  0  0  0  0  0  0  0  0  0  0
   -0.3261   -3.6035    0.4201 C   0  0  0  0  0  0  0  0  0  0  0  0
   -1.6352   -4.0029    0.6953 C   0  0  0  0  0  0  0  0  0  0  0  0
   -2.6533   -3.0535    0.8006 C   0  0  0  0  0  0  0  0  0  0  0  0
   -3.9233   -3.4541    1.0651 N   0  0  0  0  0  0  0  0  0  0  0  0
   -4.9311   -2.5540    1.1761 C   0  0  0  0  0  0  0  0  0  0  0  0
   -4.6791   -1.2286    1.0337 N   0  0  0  0  0  0  0  0  0  0  0  0
   -3.4285   -0.7624    0.7660 C   0  0  0  0  0  0  0  0  0  0  0  0
   -3.2121    0.6568    0.6793 N   0  0  0  0  0  0  0  0  0  0  0  0
   -4.1906    1.5766    0.1644 C   0  0  0  0  0  0  0  0  0  0  0  0
   -4.1729    2.9145    0.5906 C   0  0  0  0  0  0  0  0  0  0  0  0
   -5.1025    3.8299    0.0880 C   0  0  0  0  0  0  0  0  0  0  0  0
   -6.0498    3.4207   -0.8538 C   0  0  0  0  0  0  0  0  0  0  0  0
   -6.0639    2.0968   -1.3008 C   0  0  0  0  0  0  0  0  0  0  0  0
   -6.9731    1.7047   -2.2269 F   0  0  0  0  0  0  0  0  0  0  0  0
   -5.1358    1.1779   -0.8000 C   0  0  0  0  0  0  0  0  0  0  0  0
   -2.3638   -1.6817    0.6358 C   0  0  0  0  0  0  0  0  0  0  0  0
   -1.0488   -1.2887    0.3187 C   0  0  0  0  0  0  0  0  0  0  0  0
   -0.0215   -2.2487    0.1926 C   0  0  0  0  0  0  0  0  0  0  0  0
    1.3312   -1.8937   -0.1939 N   0  0  0  0  0  0  0  0  0  0  0  0
    1.6760   -0.5532   -0.6979 C   0  0  0  0  0  0  0  0  0  0  0  0
    2.0651    0.3676    0.4674 C   0  0  0  0  0  0  0  0  0  0  0  0
    2.1628    1.8565    0.0701 C   0  0  0  0  0  0  0  0  0  0  0  0
    3.4505    2.2590   -0.5387 N   0  0  0  0  0  0  0  0  0  0  0  0
    3.6340    1.9230   -1.9660 C   0  0  0  0  0  0  0  0  0  0  0  0
    4.8153    0.9708   -2.1927 C   0  0  0  0  0  0  0  0  0  0  0  0
    4.9616    0.1075   -1.0891 O   0  0  0  0  0  0  0  0  0  0  0  0
    5.4564    0.8336    0.0178 C   0  0  0  0  0  0  0  0  0  0  0  0
    4.6452    2.1163    0.3186 C   0  0  0  0  0  0  0  0  0  0  0  0
    2.6845   -5.0169    0.0504 H   0  0  0  0  0  0  0  0  0  0  0  0
    2.2940   -4.1995    1.6110 H   0  0  0  0  0  0  0  0  0  0  0  0
   -1.8556   -5.0535    0.8413 H   0  0  0  0  0  0  0  0  0  0  0  0
   -5.9361   -2.8923    1.3869 H   0  0  0  0  0  0  0  0  0  0  0  0
   -2.3563    1.0549    1.1273 H   0  0  0  0  0  0  0  0  0  0  0  0
   -3.4433    3.2453    1.3192 H   0  0  0  0  0  0  0  0  0  0  0  0
   -5.0875    4.8574    0.4280 H   0  0  0  0  0  0  0  0  0  0  0  0
   -6.7674    4.1321   -1.2421 H   0  0  0  0  0  0  0  0  0  0  0  0
   -5.1457    0.1643   -1.1792 H   0  0  0  0  0  0  0  0  0  0  0  0
   -0.8302   -0.2451    0.1641 H   0  0  0  0  0  0  0  0  0  0  0  0
    0.8320   -0.1287   -1.2805 H   0  0  0  0  0  0  0  0  0  0  0  0
    2.5131   -0.6294   -1.4184 H   0  0  0  0  0  0  0  0  0  0  0  0
    3.0023    0.0103    0.9367 H   0  0  0  0  0  0  0  0  0  0  0  0
    1.2795    0.2854    1.2493 H   0  0  0  0  0  0  0  0  0  0  0  0
    2.0114    2.4658    0.9878 H   0  0  0  0  0  0  0  0  0  0  0  0
    1.3205    2.1319   -0.6018 H   0  0  0  0  0  0  0  0  0  0  0  0
    2.7109    1.4821   -2.4001 H   0  0  0  0  0  0  0  0  0  0  0  0
    3.8221    2.8622   -2.5279 H   0  0  0  0  0  0  0  0  0  0  0  0
    4.6221    0.3604   -3.1001 H   0  0  0  0  0  0  0  0  0  0  0  0
    5.7518    1.5452   -2.3851 H   0  0  0  0  0  0  0  0  0  0  0  0
    5.4227    0.1689    0.9068 H   0  0  0  0  0  0  0  0  0  0  0  0
    6.5291    1.0848   -0.1422 H   0  0  0  0  0  0  0  0  0  0  0  0
    5.3000    2.9966    0.1416 H   0  0  0  0  0  0  0  0  0  0  0  0
    4.3694    2.1476    1.3960 H   0  0  0  0  0  0  0  0  0  0  0  0
  1  2  2  0
  2  3  1  0
  3  4  1  0
  4  5  1  0
  5  6  2  0
  6  7  1  0
  7  8  2  0
  8  9  1  0
  9 10  2  0
 10 11  1  0
 11 12  1  0
 12 13  1  0
 13 14  2  0
 14 15  1  0
 15 16  2  0
 16 17  1  0
 17 18  1  0
 17 19  2  0
 11 20  2  0
 20 21  1  0
 21 22  2  0
 22 23  1  0
 23 24  1  0
 24 25  1  0
 25 26  1  0
 26 27  1  0
 27 28  1  0
 28 29  1  0
 29 30  1  0
 30 31  1  0
 31 32  1  0
 23  2  1  0
 32 27  1  0
 22  5  1  0
 20  7  1  0
 19 13  1  0
  3 33  1  0
  3 34  1  0
  6 35  1  0
  9 36  1  0
 12 37  1  0
 14 38  1  0
 15 39  1  0
 16 40  1  0
 19 41  1  0
 21 42  1  0
 24 43  1  0
 24 44  1  0
 25 45  1  0
 25 46  1  0
 26 47  1  0
 26 48  1  0
 28 49  1  0
 28 50  1  0
 29 51  1  0
 29 52  1  0
 31 53  1  0
 31 54  1  0
 32 55  1  0
 32 56  1  0
M  END
