
     RDKit          3D

 39 40  0  0  0  0  0  0  0  0999 V2000
    6.0707   -2.2379    1.2977 O   0  0  0  0  0  0  0  0  0  0  0  0
    5.3611   -1.6089    0.4670 C   0  0  0  0  0  0  0  0  0  0  0  0
    5.6281   -1.7111   -0.8951 O   0  0  0  0  0  0  0  0  0  0  0  0
    4.2645   -0.7097    0.9447 C   0  0  0  0  0  0  0  0  0  0  0  0
    4.7623    0.7386    1.0306 C   0  0  0  0  0  0  0  0  0  0  0  0
    3.6916    1.6924    1.5768 C   0  0  0  0  0  0  0  0  0  0  0  0
    2.5547    1.8648    0.6107 C   0  0  0  0  0  0  0  0  0  0  0  0
    2.6812    2.6767   -0.3454 O   0  0  0  0  0  0  0  0  0  0  0  0
    1.3568    1.0849    0.7630 N   0  0  0  0  0  0  0  0  0  0  0  0
    0.2314    1.1393   -0.1314 C   0  0  0  0  0  0  0  0  0  0  0  0
   -0.9072    0.3688    0.1330 C   0  0  0  0  0  0  0  0  0  0  0  0
   -1.9954    0.4320   -0.7533 C   0  0  0  0  0  0  0  0  0  0  0  0
   -3.1961   -0.3384   -0.5302 N   0  0  0  0  0  0  0  0  0  0  0  0
   -3.5622   -0.7961    0.8164 C   0  0  0  0  0  0  0  0  0  0  0  0
   -5.0796   -0.9772    0.9187 C   0  0  0  0  0  0  0  0  0  0  0  0
   -5.5621   -1.7858   -0.1361 O   0  0  0  0  0  0  0  0  0  0  0  0
   -5.3751   -1.1177   -1.3683 C   0  0  0  0  0  0  0  0  0  0  0  0
   -3.8842   -0.9485   -1.6752 C   0  0  0  0  0  0  0  0  0  0  0  0
   -1.9046    1.2329   -1.8496 N   0  0  0  0  0  0  0  0  0  0  0  0
   -0.7930    1.9714   -2.0972 C   0  0  0  0  0  0  0  0  0  0  0  0
    0.2600    1.9228   -1.2427 N   0  0  0  0  0  0  0  0  0  0  0  0
    6.3831   -2.2955   -1.2348 H   0  0  0  0  0  0  0  0  0  0  0  0
    3.9124   -1.0488    1.9437 H   0  0  0  0  0  0  0  0  0  0  0  0
    3.4139   -0.7799    0.2334 H   0  0  0  0  0  0  0  0  0  0  0  0
    5.6418    0.7783    1.7105 H   0  0  0  0  0  0  0  0  0  0  0  0
    5.0936    1.0852    0.0264 H   0  0  0  0  0  0  0  0  0  0  0  0
    4.1569    2.6852    1.7614 H   0  0  0  0  0  0  0  0  0  0  0  0
    3.3142    1.3253    2.5559 H   0  0  0  0  0  0  0  0  0  0  0  0
    1.3055    0.4315    1.5770 H   0  0  0  0  0  0  0  0  0  0  0  0
   -0.9304   -0.2754    1.0016 H   0  0  0  0  0  0  0  0  0  0  0  0
   -3.0564   -1.7637    1.0258 H   0  0  0  0  0  0  0  0  0  0  0  0
   -3.2488   -0.0509    1.5796 H   0  0  0  0  0  0  0  0  0  0  0  0
   -5.3136   -1.4768    1.8824 H   0  0  0  0  0  0  0  0  0  0  0  0
   -5.5901    0.0138    0.9334 H   0  0  0  0  0  0  0  0  0  0  0  0
   -5.8362   -1.7274   -2.1735 H   0  0  0  0  0  0  0  0  0  0  0  0
   -5.8893   -0.1282   -1.3750 H   0  0  0  0  0  0  0  0  0  0  0  0
   -3.7805   -0.3222   -2.5874 H   0  0  0  0  0  0  0  0  0  0  0  0
   -3.4330   -1.9428   -1.8818 H   0  0  0  0  0  0  0  0  0  0  0  0
   -0.7463    2.5991   -2.9766 H   0  0  0  0  0  0  0  0  0  0  0  0
  1  2  2  0
  2  3  1  0
  2  4  1  0
  4  5  1  0
  5  6  1  0
  6  7  1  0
  7  8  2  0
  7  9  1  0
  9 10  1  0
 10 11  2  0
 11 12  1  0
 12 13  1  0
 13 14  1  0
 14 15  1  0
 15 16  1  0
 16 17  1  0
 17 18  1  0
 12 19  2  0
 19 20  1  0
 20 21  2  0
 21 10  1  0
 18 13  1  0
  3 22  1  0
  4 23  1  0
  4 24  1  0
  5 25  1  0
  5 26  1  0
  6 27  1  0
  6 28  1  0
  9 29  1  0
 11 30  1  0
 14 31  1  0
 14 32  1  0
 15 33  1  0
 15 34  1  0
 17 35  1  0
 17 36  1  0
 18 37  1  0
 18 38  1  0
 20 39  1  0
M  END
