
     RDKit          3D

 70 74  0  0  0  0  0  0  0  0999 V2000
    8.8048   -1.7835    2.0341 C   0  0  0  0  0  0  0  0  0  0  0  0
    8.1148   -0.6679    1.4794 O   0  0  0  0  0  0  0  0  0  0  0  0
    6.7500   -0.6603    1.1500 C   0  0  0  0  0  0  0  0  0  0  0  0
    5.9323   -1.7869    1.3372 C   0  0  0  0  0  0  0  0  0  0  0  0
    4.5838   -1.7486    0.9859 C   0  0  0  0  0  0  0  0  0  0  0  0
    4.0136   -0.5767    0.4582 C   0  0  0  0  0  0  0  0  0  0  0  0
    2.5638   -0.4993    0.1393 C   0  0  0  0  0  0  0  0  0  0  0  0
    1.8161   -1.5651   -0.1834 C   0  0  0  0  0  0  0  0  0  0  0  0
    0.3761   -1.4641   -0.4964 C   0  0  0  0  0  0  0  0  0  0  0  0
   -0.1554   -2.3815   -1.1784 O   0  0  0  0  0  0  0  0  0  0  0  0
   -0.4192   -0.3625   -0.0259 N   0  0  0  0  0  0  0  0  0  0  0  0
   -1.7075   -0.0404   -0.5694 C   0  0  0  0  0  0  0  0  0  0  0  0
   -2.7343   -0.9974   -0.5859 C   0  0  0  0  0  0  0  0  0  0  0  0
   -4.0119   -0.6635   -1.0697 C   0  0  0  0  0  0  0  0  0  0  0  0
   -5.0853   -1.5798   -1.0937 C   0  0  0  0  0  0  0  0  0  0  0  0
   -4.9113   -2.9518   -0.7019 N   0  0  0  0  0  0  0  0  0  0  0  0
   -5.9335   -3.7146   -0.0379 C   0  0  0  0  0  0  0  0  0  0  0  0
   -6.8848   -3.0927    0.7911 C   0  0  0  0  0  0  0  0  0  0  0  0
   -7.8506   -3.8559    1.4529 C   0  0  0  0  0  0  0  0  0  0  0  0
   -7.8721   -5.2451    1.3029 C   0  0  0  0  0  0  0  0  0  0  0  0
   -8.8125   -5.9751    1.9531 F   0  0  0  0  0  0  0  0  0  0  0  0
   -6.9216   -5.8750    0.4908 C   0  0  0  0  0  0  0  0  0  0  0  0
   -6.9359   -7.6196    0.2993 Cl  0  0  0  0  0  0  0  0  0  0  0  0
   -5.9534   -5.1116   -0.1718 C   0  0  0  0  0  0  0  0  0  0  0  0
   -6.3025   -1.1656   -1.5399 N   0  0  0  0  0  0  0  0  0  0  0  0
   -6.5119    0.1070   -1.9599 C   0  0  0  0  0  0  0  0  0  0  0  0
   -5.4951    1.0037   -1.9478 N   0  0  0  0  0  0  0  0  0  0  0  0
   -4.2570    0.6533   -1.5143 C   0  0  0  0  0  0  0  0  0  0  0  0
   -3.2342    1.6062   -1.4949 C   0  0  0  0  0  0  0  0  0  0  0  0
   -1.9534    1.2658   -1.0232 C   0  0  0  0  0  0  0  0  0  0  0  0
   -0.8930    2.1873   -0.9974 O   0  0  0  0  0  0  0  0  0  0  0  0
   -0.9673    3.5526   -1.4109 C   0  0  1  0  0  0  0  0  0  0  0  0
   -1.7011    4.4018   -0.3972 C   0  0  0  0  0  0  0  0  0  0  0  0
   -0.6552    5.3917    0.0788 C   0  0  0  0  0  0  0  0  0  0  0  0
    0.3751    5.4408   -0.8754 O   0  0  0  0  0  0  0  0  0  0  0  0
    0.4269    4.1603   -1.4526 C   0  0  0  0  0  0  0  0  0  0  0  0
    4.8221    0.5703    0.3073 C   0  0  0  0  0  0  0  0  0  0  0  0
    4.2393    1.7683   -0.1138 O   0  0  0  0  0  0  0  0  0  0  0  0
    3.9787    2.8253    0.8032 C   0  0  0  0  0  0  0  0  0  0  0  0
    6.2029    0.5106    0.6061 C   0  0  0  0  0  0  0  0  0  0  0  0
    7.0659    1.5934    0.3813 O   0  0  0  0  0  0  0  0  0  0  0  0
    7.0743    2.3666   -0.8158 C   0  0  0  0  0  0  0  0  0  0  0  0
    8.3572   -2.0624    3.0117 H   0  0  0  0  0  0  0  0  0  0  0  0
    9.8673   -1.5092    2.1952 H   0  0  0  0  0  0  0  0  0  0  0  0
    8.7629   -2.6443    1.3337 H   0  0  0  0  0  0  0  0  0  0  0  0
    6.3301   -2.7015    1.7544 H   0  0  0  0  0  0  0  0  0  0  0  0
    3.9841   -2.6302    1.1694 H   0  0  0  0  0  0  0  0  0  0  0  0
    2.1143    0.4838    0.1115 H   0  0  0  0  0  0  0  0  0  0  0  0
    2.2763   -2.5385   -0.2910 H   0  0  0  0  0  0  0  0  0  0  0  0
   -0.0080    0.3154    0.6525 H   0  0  0  0  0  0  0  0  0  0  0  0
   -2.5354   -1.9800   -0.1823 H   0  0  0  0  0  0  0  0  0  0  0  0
   -4.0460   -3.4494   -1.0102 H   0  0  0  0  0  0  0  0  0  0  0  0
   -6.8685   -2.0220    0.9453 H   0  0  0  0  0  0  0  0  0  0  0  0
   -8.5765   -3.3688    2.0913 H   0  0  0  0  0  0  0  0  0  0  0  0
   -5.2177   -5.6052   -0.7940 H   0  0  0  0  0  0  0  0  0  0  0  0
   -7.4909    0.4055   -2.3075 H   0  0  0  0  0  0  0  0  0  0  0  0
   -3.4499    2.6082   -1.8399 H   0  0  0  0  0  0  0  0  0  0  0  0
   -1.4339    3.6335   -2.4180 H   0  0  0  0  0  0  0  0  0  0  0  0
   -2.0965    3.8037    0.4521 H   0  0  0  0  0  0  0  0  0  0  0  0
   -2.5402    4.9394   -0.8895 H   0  0  0  0  0  0  0  0  0  0  0  0
   -0.2338    5.0686    1.0567 H   0  0  0  0  0  0  0  0  0  0  0  0
   -1.1025    6.4017    0.2002 H   0  0  0  0  0  0  0  0  0  0  0  0
    0.7822    4.2418   -2.5016 H   0  0  0  0  0  0  0  0  0  0  0  0
    1.1527    3.5362   -0.8852 H   0  0  0  0  0  0  0  0  0  0  0  0
    3.2673    2.4804    1.5850 H   0  0  0  0  0  0  0  0  0  0  0  0
    4.9217    3.1613    1.2851 H   0  0  0  0  0  0  0  0  0  0  0  0
    3.5278    3.6796    0.2580 H   0  0  0  0  0  0  0  0  0  0  0  0
    7.0595    1.6970   -1.7036 H   0  0  0  0  0  0  0  0  0  0  0  0
    8.0029    2.9735   -0.8427 H   0  0  0  0  0  0  0  0  0  0  0  0
    6.2132    3.0617   -0.8524 H   0  0  0  0  0  0  0  0  0  0  0  0
  1  2  1  0
  2  3  1  0
  3  4  2  0
  4  5  1  0
  5  6  2  0
  6  7  1  0
  7  8  2  0
  8  9  1  0
  9 10  2  0
  9 11  1  0
 11 12  1  0
 12 13  2  0
 13 14  1  0
 14 15  2  0
 15 16  1  0
 16 17  1  0
 17 18  2  0
 18 19  1  0
 19 20  2  0
 20 21  1  0
 20 22  1  0
 22 23  1  0
 22 24  2  0
 15 25  1  0
 25 26  2  0
 26 27  1  0
 27 28  2  0
 28 29  1  0
 29 30  2  0
 30 31  1  0
 31 32  1  0
 32 33  1  0
 33 34  1  0
 34 35  1  0
 35 36  1  0
  6 37  1  0
 37 38  1  0
 38 39  1  0
 37 40  2  0
 40 41  1  0
 41 42  1  0
 40  3  1  0
 30 12  1  0
 36 32  1  0
 28 14  1  0
 24 17  1  0
  1 43  1  0
  1 44  1  0
  1 45  1  0
  4 46  1  0
  5 47  1  0
  7 48  1  0
  8 49  1  0
 11 50  1  0
 13 51  1  0
 16 52  1  0
 18 53  1  0
 19 54  1  0
 24 55  1  0
 26 56  1  0
 29 57  1  0
 32 58  1  6
 33 59  1  0
 33 60  1  0
 34 61  1  0
 34 62  1  0
 36 63  1  0
 36 64  1  0
 39 65  1  0
 39 66  1  0
 39 67  1  0
 42 68  1  0
 42 69  1  0
 42 70  1  0
M  END
