
     RDKit          3D

 29 31  0  0  0  0  0  0  0  0999 V2000
    3.3614    2.7044    1.0402 Br  0  0  0  0  0  0  0  0  0  0  0  0
    3.1734    1.3101   -0.2516 C   0  0  0  0  0  0  0  0  0  0  0  0
    4.0622    1.2305   -1.3279 C   0  0  0  0  0  0  0  0  0  0  0  0
    3.9232    0.2128   -2.2745 C   0  0  0  0  0  0  0  0  0  0  0  0
    2.8956   -0.7264   -2.1479 C   0  0  0  0  0  0  0  0  0  0  0  0
    1.9981   -0.6581   -1.0747 C   0  0  0  0  0  0  0  0  0  0  0  0
    0.9803   -1.6236   -0.9968 O   0  0  0  0  0  0  0  0  0  0  0  0
   -0.0140   -1.6905    0.0275 C   0  0  0  0  0  0  0  0  0  0  0  0
   -1.0395   -0.5908   -0.1164 C   0  0  0  0  0  0  0  0  0  0  0  0
   -1.0353    0.1714   -1.2451 N   0  0  0  0  0  0  0  0  0  0  0  0
   -1.9309    1.1729   -1.4361 C   0  0  0  0  0  0  0  0  0  0  0  0
   -2.8704    1.4355   -0.4942 N   0  0  0  0  0  0  0  0  0  0  0  0
   -2.9368    0.7028    0.6464 C   0  0  0  0  0  0  0  0  0  0  0  0
   -3.9173    0.9800    1.6034 C   0  0  0  0  0  0  0  0  0  0  0  0
   -3.9899    0.2366    2.7387 N   0  0  0  0  0  0  0  0  0  0  0  0
   -3.1278   -0.7860    2.9804 C   0  0  0  0  0  0  0  0  0  0  0  0
   -2.1297   -1.1008    2.0545 C   0  0  0  0  0  0  0  0  0  0  0  0
   -2.0212   -0.3475    0.8707 C   0  0  0  0  0  0  0  0  0  0  0  0
    2.1447    0.3702   -0.1214 C   0  0  0  0  0  0  0  0  0  0  0  0
    4.8588    1.9560   -1.4313 H   0  0  0  0  0  0  0  0  0  0  0  0
    4.6114    0.1520   -3.1076 H   0  0  0  0  0  0  0  0  0  0  0  0
    2.7946   -1.5106   -2.8874 H   0  0  0  0  0  0  0  0  0  0  0  0
   -0.5347   -2.6672   -0.0569 H   0  0  0  0  0  0  0  0  0  0  0  0
    0.4778   -1.6501    1.0228 H   0  0  0  0  0  0  0  0  0  0  0  0
   -1.8951    1.7628   -2.3415 H   0  0  0  0  0  0  0  0  0  0  0  0
   -4.6248    1.7839    1.4457 H   0  0  0  0  0  0  0  0  0  0  0  0
   -3.2180   -1.3586    3.8938 H   0  0  0  0  0  0  0  0  0  0  0  0
   -1.4640   -1.9255    2.2699 H   0  0  0  0  0  0  0  0  0  0  0  0
    1.4677    0.4539    0.7172 H   0  0  0  0  0  0  0  0  0  0  0  0
  1  2  1  0
  2  3  2  0
  3  4  1  0
  4  5  2  0
  5  6  1  0
  6  7  1  0
  7  8  1  0
  8  9  1  0
  9 10  2  0
 10 11  1  0
 11 12  2  0
 12 13  1  0
 13 14  2  0
 14 15  1  0
 15 16  2  0
 16 17  1  0
 17 18  2  0
  6 19  2  0
 19  2  1  0
 18  9  1  0
 18 13  1  0
  3 20  1  0
  4 21  1  0
  5 22  1  0
  8 23  1  0
  8 24  1  0
 11 25  1  0
 14 26  1  0
 16 27  1  0
 17 28  1  0
 19 29  1  0
M  END
