
     RDKit          3D

 81 86  0  0  0  0  0  0  0  0999 V2000
  -12.0859    2.4616   -1.3868 C   0  0  0  0  0  0  0  0  0  0  0  0
  -10.7699    1.6957   -1.4223 C   0  0  0  0  0  0  0  0  0  0  0  0
   -9.6742    2.2384   -0.1208 S   0  0  0  0  0  0  0  0  0  0  0  0
   -9.2936    3.6728   -0.3585 O   0  0  0  0  0  0  0  0  0  0  0  0
  -10.3511    2.1307    1.2170 O   0  0  0  0  0  0  0  0  0  0  0  0
   -8.2483    1.2519   -0.1312 N   0  0  0  0  0  0  0  0  0  0  0  0
   -7.0244    1.6383   -0.5531 C   0  0  0  0  0  0  0  0  0  0  0  0
   -6.1277    0.5734   -0.4724 C   0  0  0  0  0  0  0  0  0  0  0  0
   -4.6857    0.5912   -0.8033 C   0  0  0  0  0  0  0  0  0  0  0  0
   -3.8284   -0.1032   -0.0056 N   0  0  0  0  0  0  0  0  0  0  0  0
   -2.4907   -0.1321   -0.2455 C   0  0  0  0  0  0  0  0  0  0  0  0
   -1.6349   -0.9135    0.6007 N   0  0  0  0  0  0  0  0  0  0  0  0
   -0.2155   -1.0173    0.3964 C   0  0  0  0  0  0  0  0  0  0  0  0
    0.5648    0.1349    0.2103 C   0  0  0  0  0  0  0  0  0  0  0  0
    1.9387    0.0282   -0.0080 C   0  0  0  0  0  0  0  0  0  0  0  0
    2.5539   -1.2285   -0.0497 C   0  0  0  0  0  0  0  0  0  0  0  0
    3.9615   -1.3134   -0.3159 N   0  0  0  0  0  0  0  0  0  0  0  0
    4.4757   -0.9906   -1.6510 C   0  0  0  0  0  0  0  0  0  0  0  0
    5.5587    0.0939   -1.5454 C   0  0  0  0  0  0  0  0  0  0  0  0
    6.6191   -0.1465   -0.4161 C   0  0  0  0  0  0  0  0  0  0  0  0
    6.6562    1.0420    0.4963 N   0  0  0  0  0  0  0  0  0  0  0  0
    7.3213    0.8458    1.8052 C   0  0  0  0  0  0  0  0  0  0  0  0
    8.8388    0.6019    1.6559 C   0  0  0  0  0  0  0  0  0  0  0  0
    9.3687    1.1673    0.3964 N   0  0  0  0  0  0  0  0  0  0  0  0
   10.8289    1.3218    0.4733 C   0  0  0  0  0  0  0  0  0  0  0  0
    8.7267    2.4555    0.0907 C   0  0  0  0  0  0  0  0  0  0  0  0
    7.2185    2.2493   -0.1751 C   0  0  0  0  0  0  0  0  0  0  0  0
    6.3444   -1.4963    0.3083 C   0  0  0  0  0  0  0  0  0  0  0  0
    4.8913   -1.5843    0.7879 C   0  0  0  0  0  0  0  0  0  0  0  0
    1.7847   -2.3894    0.1516 C   0  0  0  0  0  0  0  0  0  0  0  0
    2.5241   -3.9798   -0.0226 Cl  0  0  0  0  0  0  0  0  0  0  0  0
    0.4031   -2.2801    0.4035 C   0  0  0  0  0  0  0  0  0  0  0  0
   -0.3738   -3.4230    0.6219 O   0  0  0  0  0  0  0  0  0  0  0  0
   -0.3283   -4.1369    1.8514 C   0  0  0  0  0  0  0  0  0  0  0  0
   -1.9859    0.5407   -1.3148 N   0  0  0  0  0  0  0  0  0  0  0  0
   -2.7946    1.2452   -2.1454 C   0  0  0  0  0  0  0  0  0  0  0  0
   -4.1716    1.2831   -1.9197 C   0  0  0  0  0  0  0  0  0  0  0  0
   -5.1894    2.0991   -3.0999 Cl  0  0  0  0  0  0  0  0  0  0  0  0
   -6.8574   -0.4884    0.0410 C   0  0  0  0  0  0  0  0  0  0  0  0
   -6.4907   -1.8066    0.3288 C   0  0  0  0  0  0  0  0  0  0  0  0
   -7.4788   -2.6697    0.8346 C   0  0  0  0  0  0  0  0  0  0  0  0
   -8.7987   -2.2103    1.0288 C   0  0  0  0  0  0  0  0  0  0  0  0
   -9.1438   -0.8822    0.7227 C   0  0  0  0  0  0  0  0  0  0  0  0
   -8.1432   -0.0413    0.2285 C   0  0  0  0  0  0  0  0  0  0  0  0
  -12.6134    2.2771   -0.4280 H   0  0  0  0  0  0  0  0  0  0  0  0
  -12.7352    2.1191   -2.2213 H   0  0  0  0  0  0  0  0  0  0  0  0
  -11.9001    3.5509   -1.5043 H   0  0  0  0  0  0  0  0  0  0  0  0
  -10.2726    1.8570   -2.4021 H   0  0  0  0  0  0  0  0  0  0  0  0
  -10.9720    0.6099   -1.3012 H   0  0  0  0  0  0  0  0  0  0  0  0
   -6.7899    2.6425   -0.8787 H   0  0  0  0  0  0  0  0  0  0  0  0
   -2.0907   -1.5617    1.2831 H   0  0  0  0  0  0  0  0  0  0  0  0
    0.1093    1.1153    0.2473 H   0  0  0  0  0  0  0  0  0  0  0  0
    2.5269    0.9260   -0.1504 H   0  0  0  0  0  0  0  0  0  0  0  0
    3.6590   -0.6355   -2.3183 H   0  0  0  0  0  0  0  0  0  0  0  0
    4.9047   -1.9067   -2.1115 H   0  0  0  0  0  0  0  0  0  0  0  0
    6.0738    0.1787   -2.5269 H   0  0  0  0  0  0  0  0  0  0  0  0
    5.0292    1.0576   -1.3762 H   0  0  0  0  0  0  0  0  0  0  0  0
    7.6122   -0.2596   -0.9060 H   0  0  0  0  0  0  0  0  0  0  0  0
    6.8373    0.0501    2.4061 H   0  0  0  0  0  0  0  0  0  0  0  0
    7.1724    1.7663    2.4139 H   0  0  0  0  0  0  0  0  0  0  0  0
    9.0333   -0.4923    1.6616 H   0  0  0  0  0  0  0  0  0  0  0  0
    9.3523    1.0352    2.5451 H   0  0  0  0  0  0  0  0  0  0  0  0
   11.2282    1.6533   -0.5097 H   0  0  0  0  0  0  0  0  0  0  0  0
   11.1157    2.0638    1.2502 H   0  0  0  0  0  0  0  0  0  0  0  0
   11.3036    0.3461    0.7121 H   0  0  0  0  0  0  0  0  0  0  0  0
    9.1880    2.9138   -0.8128 H   0  0  0  0  0  0  0  0  0  0  0  0
    8.8648    3.1674    0.9384 H   0  0  0  0  0  0  0  0  0  0  0  0
    7.0587    2.2218   -1.2752 H   0  0  0  0  0  0  0  0  0  0  0  0
    6.6675    3.1439    0.1899 H   0  0  0  0  0  0  0  0  0  0  0  0
    6.5263   -2.3252   -0.4100 H   0  0  0  0  0  0  0  0  0  0  0  0
    7.0474   -1.6968    1.1397 H   0  0  0  0  0  0  0  0  0  0  0  0
    4.7046   -2.5970    1.2021 H   0  0  0  0  0  0  0  0  0  0  0  0
    4.7232   -0.8428    1.5973 H   0  0  0  0  0  0  0  0  0  0  0  0
    0.6994   -4.4957    2.0609 H   0  0  0  0  0  0  0  0  0  0  0  0
   -0.6643   -3.4822    2.6819 H   0  0  0  0  0  0  0  0  0  0  0  0
   -1.0078   -5.0122    1.7882 H   0  0  0  0  0  0  0  0  0  0  0  0
   -2.3665    1.7588   -2.9969 H   0  0  0  0  0  0  0  0  0  0  0  0
   -5.4826   -2.1643    0.1661 H   0  0  0  0  0  0  0  0  0  0  0  0
   -7.2266   -3.6942    1.0741 H   0  0  0  0  0  0  0  0  0  0  0  0
   -9.5524   -2.8855    1.4145 H   0  0  0  0  0  0  0  0  0  0  0  0
  -10.1562   -0.5324    0.8688 H   0  0  0  0  0  0  0  0  0  0  0  0
  1  2  1  0
  2  3  1  0
  3  4  2  0
  3  5  2  0
  3  6  1  0
  6  7  1  0
  7  8  2  0
  8  9  1  0
  9 10  2  0
 10 11  1  0
 11 12  1  0
 12 13  1  0
 13 14  2  0
 14 15  1  0
 15 16  2  0
 16 17  1  0
 17 18  1  0
 18 19  1  0
 19 20  1  0
 20 21  1  0
 21 22  1  0
 22 23  1  0
 23 24  1  0
 24 25  1  0
 24 26  1  0
 26 27  1  0
 20 28  1  0
 28 29  1  0
 16 30  1  0
 30 31  1  0
 30 32  2  0
 32 33  1  0
 33 34  1  0
 11 35  2  0
 35 36  1  0
 36 37  2  0
 37 38  1  0
  8 39  1  0
 39 40  2  0
 40 41  1  0
 41 42  2  0
 42 43  1  0
 43 44  2  0
 44  6  1  0
 37  9  1  0
 44 39  1  0
 32 13  1  0
 29 17  1  0
 27 21  1  0
  1 45  1  0
  1 46  1  0
  1 47  1  0
  2 48  1  0
  2 49  1  0
  7 50  1  0
 12 51  1  0
 14 52  1  0
 15 53  1  0
 18 54  1  0
 18 55  1  0
 19 56  1  0
 19 57  1  0
 20 58  1  0
 22 59  1  0
 22 60  1  0
 23 61  1  0
 23 62  1  0
 25 63  1  0
 25 64  1  0
 25 65  1  0
 26 66  1  0
 26 67  1  0
 27 68  1  0
 27 69  1  0
 28 70  1  0
 28 71  1  0
 29 72  1  0
 29 73  1  0
 34 74  1  0
 34 75  1  0
 34 76  1  0
 36 77  1  0
 40 78  1  0
 41 79  1  0
 42 80  1  0
 43 81  1  0
M  END
