
     RDKit          3D

 33 35  0  0  0  0  0  0  0  0999 V2000
    5.7996    1.2273    0.8269 C   0  0  0  0  0  0  0  0  0  0  0  0
    4.8231    1.0596    1.7198 C   0  0  0  0  0  0  0  0  0  0  0  0
    3.8598   -0.4106    1.7627 S   0  0  0  0  0  3  0  0  0  0  0  0
    4.7982   -1.7710    2.0623 O   0  0  0  0  0  1  0  0  0  0  0  0
    2.8715   -0.5995    0.3289 C   0  0  0  0  0  0  0  0  0  0  0  0
    1.4770   -0.5423    0.4246 C   0  0  0  0  0  0  0  0  0  0  0  0
    0.6981   -0.6975   -0.7362 C   0  0  0  0  0  0  0  0  0  0  0  0
   -0.7127   -0.6491   -0.7323 C   0  0  0  0  0  0  0  0  0  0  0  0
   -1.4576   -0.5246    0.4918 N   0  0  0  0  0  0  0  0  0  0  0  0
   -2.7471    0.1075    0.5725 C   0  0  0  0  0  0  0  0  0  0  0  0
   -3.1059    1.1533   -0.2986 C   0  0  0  0  0  0  0  0  0  0  0  0
   -4.3572    1.7667   -0.1863 C   0  0  0  0  0  0  0  0  0  0  0  0
   -5.2555    1.3525    0.8001 C   0  0  0  0  0  0  0  0  0  0  0  0
   -4.9012    0.3277    1.6826 C   0  0  0  0  0  0  0  0  0  0  0  0
   -6.1247   -0.2296    3.0391 Br  0  0  0  0  0  0  0  0  0  0  0  0
   -3.6493   -0.2879    1.5733 C   0  0  0  0  0  0  0  0  0  0  0  0
   -1.3831   -0.7800   -1.9103 N   0  0  0  0  0  0  0  0  0  0  0  0
   -0.7311   -0.9503   -3.0884 C   0  0  0  0  0  0  0  0  0  0  0  0
    0.6238   -1.0055   -3.1156 N   0  0  0  0  0  0  0  0  0  0  0  0
    1.3486   -0.8843   -1.9743 C   0  0  0  0  0  0  0  0  0  0  0  0
    2.7442   -0.9364   -2.0191 C   0  0  0  0  0  0  0  0  0  0  0  0
    3.4669   -0.7958   -0.8774 N   0  0  0  0  0  0  0  0  0  0  0  0
    6.0304    0.4587    0.0961 H   0  0  0  0  0  0  0  0  0  0  0  0
    6.0303    0.4587    0.0961 H   0  0  0  0  0  0  0  0  0  0  0  0
    4.6198    1.8454    2.4384 H   0  0  0  0  0  0  0  0  0  0  0  0
    1.0252   -0.3633    1.3907 H   0  0  0  0  0  0  0  0  0  0  0  0
   -1.1082   -1.0277    1.3380 H   0  0  0  0  0  0  0  0  0  0  0  0
   -2.4147    1.5093   -1.0511 H   0  0  0  0  0  0  0  0  0  0  0  0
   -4.6279    2.5692   -0.8604 H   0  0  0  0  0  0  0  0  0  0  0  0
   -6.2222    1.8324    0.8825 H   0  0  0  0  0  0  0  0  0  0  0  0
   -3.3817   -1.0798    2.2617 H   0  0  0  0  0  0  0  0  0  0  0  0
   -1.2935   -1.0489   -4.0066 H   0  0  0  0  0  0  0  0  0  0  0  0
    3.2572   -1.0842   -2.9608 H   0  0  0  0  0  0  0  0  0  0  0  0
  1  2  2  0
  2  3  1  0
  3  4  1  0
  3  5  1  0
  5  6  2  0
  6  7  1  0
  7  8  2  0
  8  9  1  0
  9 10  1  0
 10 11  2  0
 11 12  1  0
 12 13  2  0
 13 14  1  0
 14 15  1  0
 14 16  2  0
  8 17  1  0
 17 18  2  0
 18 19  1  0
 19 20  2  0
 20 21  1  0
 21 22  2  0
 22  5  1  0
 20  7  1  0
 16 10  1  0
  1 23  1  0
  1 24  1  0
  2 25  1  0
  6 26  1  0
  9 27  1  0
 11 28  1  0
 12 29  1  0
 13 30  1  0
 16 31  1  0
 18 32  1  0
 21 33  1  0
M  CHG  2   3   1   4  -1
M  END
