
     RDKit          3D

 61 66  0  0  0  0  0  0  0  0999 V2000
    6.7466    1.0643    2.8309 N   0  0  0  0  0  0  0  0  0  0  0  0
    5.3712    1.4405    2.4909 C   0  0  0  0  0  0  0  0  0  0  0  0
    5.3366    2.1863    1.1313 C   0  0  0  0  0  0  0  0  0  0  0  0
    4.7758    1.3214   -0.0023 C   0  0  0  0  0  0  0  0  0  0  0  0
    3.4123    0.8656    0.3292 N   0  0  0  0  0  0  0  0  0  0  0  0
    2.7165    0.1200   -0.7410 C   0  0  0  0  0  0  0  0  0  0  0  0
    2.9408   -1.3810   -0.7346 C   0  0  0  0  0  0  0  0  0  0  0  0
    4.0972   -2.0659   -0.3459 C   0  0  0  0  0  0  0  0  0  0  0  0
    3.8390   -3.4204   -0.4594 C   0  0  0  0  0  0  0  0  0  0  0  0
    2.5941   -3.5790   -0.9250 N   0  0  0  0  0  0  0  0  0  0  0  0
    1.9649   -4.7276   -1.1555 N   0  0  0  0  0  0  0  0  0  0  0  0
    0.6930   -4.6932   -1.6361 C   0  0  0  0  0  0  0  0  0  0  0  0
    0.0995   -3.4935   -1.8960 N   0  0  0  0  0  0  0  0  0  0  0  0
    0.7425   -2.3130   -1.6600 C   0  0  0  0  0  0  0  0  0  0  0  0
    0.1309   -1.0795   -2.0574 N   0  0  0  0  0  0  0  0  0  0  0  0
   -1.2800   -0.8310   -1.9452 C   0  0  0  0  0  0  0  0  0  0  0  0
   -2.0642   -1.4816   -0.9513 C   0  0  0  0  0  0  0  0  0  0  0  0
   -3.4424   -1.2214   -0.8366 C   0  0  0  0  0  0  0  0  0  0  0  0
   -4.0041   -0.3037   -1.7239 C   0  0  0  0  0  0  0  0  0  0  0  0
   -3.2526    0.3341   -2.6667 C   0  0  0  0  0  0  0  0  0  0  0  0
   -4.1222    1.1652   -3.3393 C   0  0  0  0  0  0  0  0  0  0  0  0
   -5.3557    1.0170   -2.7987 N   0  0  0  0  0  0  0  0  0  0  0  0
   -5.2795    0.1169   -1.8242 N   0  0  0  0  0  0  0  0  0  0  0  0
   -6.4109   -0.2593   -0.9796 C   0  0  0  0  0  0  0  0  0  0  0  0
   -6.4080    0.5630    0.2754 C   0  0  0  0  0  0  0  0  0  0  0  0
   -6.0760   -0.0080    1.5140 C   0  0  0  0  0  0  0  0  0  0  0  0
   -6.0591    0.7958    2.6563 C   0  0  0  0  0  0  0  0  0  0  0  0
   -6.3668    2.1530    2.5545 C   0  0  0  0  0  0  0  0  0  0  0  0
   -6.6863    2.6898    1.3052 C   0  0  0  0  0  0  0  0  0  0  0  0
   -6.6977    1.8918    0.2037 N   0  0  0  0  0  0  0  0  0  0  0  0
   -1.8876    0.1067   -2.8089 C   0  0  0  0  0  0  0  0  0  0  0  0
    2.0415   -2.3744   -1.1306 C   0  0  0  0  0  0  0  0  0  0  0  0
    3.1733    0.3992    1.7166 C   0  0  0  0  0  0  0  0  0  0  0  0
    4.4738    0.1846    2.5043 C   0  0  0  0  0  0  0  0  0  0  0  0
    6.7392    0.5923    3.7651 H   0  0  0  0  0  0  0  0  0  0  0  0
    7.3030    1.9405    2.9612 H   0  0  0  0  0  0  0  0  0  0  0  0
    4.9914    2.1393    3.2725 H   0  0  0  0  0  0  0  0  0  0  0  0
    6.3501    2.5461    0.8454 H   0  0  0  0  0  0  0  0  0  0  0  0
    4.6916    3.0894    1.2301 H   0  0  0  0  0  0  0  0  0  0  0  0
    5.4581    0.4702   -0.1908 H   0  0  0  0  0  0  0  0  0  0  0  0
    4.7441    1.9391   -0.9275 H   0  0  0  0  0  0  0  0  0  0  0  0
    1.6359    0.3209   -0.6063 H   0  0  0  0  0  0  0  0  0  0  0  0
    2.9977    0.5191   -1.7393 H   0  0  0  0  0  0  0  0  0  0  0  0
    5.0309   -1.6527   -0.0060 H   0  0  0  0  0  0  0  0  0  0  0  0
    4.5182   -4.2277   -0.2192 H   0  0  0  0  0  0  0  0  0  0  0  0
    0.1607   -5.6145   -1.8284 H   0  0  0  0  0  0  0  0  0  0  0  0
    0.7172   -0.3893   -2.5801 H   0  0  0  0  0  0  0  0  0  0  0  0
   -1.6075   -2.1760   -0.2580 H   0  0  0  0  0  0  0  0  0  0  0  0
   -4.0363   -1.7180   -0.0818 H   0  0  0  0  0  0  0  0  0  0  0  0
   -3.8820    1.8364   -4.1531 H   0  0  0  0  0  0  0  0  0  0  0  0
   -6.3693   -1.3468   -0.7519 H   0  0  0  0  0  0  0  0  0  0  0  0
   -7.3600   -0.0774   -1.5283 H   0  0  0  0  0  0  0  0  0  0  0  0
   -5.8341   -1.0602    1.5963 H   0  0  0  0  0  0  0  0  0  0  0  0
   -5.8062    0.3670    3.6179 H   0  0  0  0  0  0  0  0  0  0  0  0
   -6.3544    2.7840    3.4343 H   0  0  0  0  0  0  0  0  0  0  0  0
   -6.9232    3.7406    1.2092 H   0  0  0  0  0  0  0  0  0  0  0  0
   -1.3160    0.6277   -3.5669 H   0  0  0  0  0  0  0  0  0  0  0  0
    2.5684    1.1701    2.2407 H   0  0  0  0  0  0  0  0  0  0  0  0
    2.5789   -0.5400    1.7408 H   0  0  0  0  0  0  0  0  0  0  0  0
    5.0223   -0.6791    2.0741 H   0  0  0  0  0  0  0  0  0  0  0  0
    4.2251   -0.0789    3.5558 H   0  0  0  0  0  0  0  0  0  0  0  0
  1  2  1  0
  2  3  1  0
  3  4  1  0
  4  5  1  0
  5  6  1  0
  6  7  1  0
  7  8  1  0
  8  9  2  0
  9 10  1  0
 10 11  1  0
 11 12  2  0
 12 13  1  0
 13 14  2  0
 14 15  1  0
 15 16  1  0
 16 17  2  0
 17 18  1  0
 18 19  2  0
 19 20  1  0
 20 21  1  0
 21 22  2  0
 22 23  1  0
 23 24  1  0
 24 25  1  0
 25 26  2  0
 26 27  1  0
 27 28  2  0
 28 29  1  0
 29 30  2  0
 20 31  2  0
 14 32  1  0
  5 33  1  0
 33 34  1  0
 34  2  1  0
 32  7  2  0
 32 10  1  0
 31 16  1  0
 23 19  1  0
 30 25  1  0
  1 35  1  0
  1 36  1  0
  2 37  1  0
  3 38  1  0
  3 39  1  0
  4 40  1  0
  4 41  1  0
  6 42  1  0
  6 43  1  0
  8 44  1  0
  9 45  1  0
 12 46  1  0
 15 47  1  0
 17 48  1  0
 18 49  1  0
 21 50  1  0
 24 51  1  0
 24 52  1  0
 26 53  1  0
 27 54  1  0
 28 55  1  0
 29 56  1  0
 31 57  1  0
 33 58  1  0
 33 59  1  0
 34 60  1  0
 34 61  1  0
M  END
