
     RDKit          3D

 51 54  0  0  0  0  0  0  0  0999 V2000
    7.5984    5.1541    0.9389 Br  0  0  0  0  0  0  0  0  0  0  0  0
    7.2498    3.3208    0.5323 C   0  0  0  0  0  0  0  0  0  0  0  0
    8.2673    2.5142    0.0139 C   0  0  0  0  0  0  0  0  0  0  0  0
    8.0102    1.1756   -0.2922 C   0  0  0  0  0  0  0  0  0  0  0  0
    6.7384    0.6375   -0.0745 C   0  0  0  0  0  0  0  0  0  0  0  0
    5.7123    1.4361    0.4646 C   0  0  0  0  0  0  0  0  0  0  0  0
    4.3898    0.9120    0.6770 N   0  0  0  0  0  0  0  0  0  0  0  0
    4.1259   -0.4701    0.9746 C   0  0  0  0  0  0  0  0  0  0  0  0
    5.0369   -1.1812    1.6941 N   0  0  0  0  0  0  0  0  0  0  0  0
    4.8174   -2.4727    2.0468 C   0  0  0  0  0  0  0  0  0  0  0  0
    3.6622   -3.0883    1.6928 N   0  0  0  0  0  0  0  0  0  0  0  0
    2.7113   -2.4336    0.9783 C   0  0  0  0  0  0  0  0  0  0  0  0
    1.5359   -3.0975    0.6157 C   0  0  0  0  0  0  0  0  0  0  0  0
    0.5601   -2.4393   -0.1351 C   0  0  0  0  0  0  0  0  0  0  0  0
    0.7449   -1.1029   -0.5261 C   0  0  0  0  0  0  0  0  0  0  0  0
   -0.2313   -0.4227   -1.3338 N   0  0  0  0  0  0  0  0  0  0  0  0
   -1.6195   -0.5890   -1.1818 N   0  0  0  0  0  0  0  0  0  0  0  0
   -2.1189   -1.1724   -0.1674 N   0  0  0  0  0  0  0  0  0  0  0  0
   -3.5594   -1.3343   -0.0309 C   0  0  0  0  0  0  0  0  0  0  0  0
   -4.2330    0.0252    0.2010 C   0  0  0  0  0  0  0  0  0  0  0  0
   -5.6637   -0.1317    0.5443 N   0  0  0  0  0  0  0  0  0  0  0  0
   -6.2403    1.1361    1.0559 C   0  0  0  0  0  0  0  0  0  0  0  0
   -7.0436    1.8787   -0.0278 C   0  0  0  0  0  0  0  0  0  0  0  0
   -8.1280    1.1246   -0.5534 O   0  0  0  0  0  0  0  0  0  0  0  0
   -7.9219   -0.2807   -0.5052 C   0  0  0  0  0  0  0  0  0  0  0  0
   -6.4414   -0.6877   -0.5898 C   0  0  0  0  0  0  0  0  0  0  0  0
    1.9342   -0.4418   -0.1826 C   0  0  0  0  0  0  0  0  0  0  0  0
    2.9174   -1.0911    0.5895 C   0  0  0  0  0  0  0  0  0  0  0  0
    5.9755    2.7854    0.7506 C   0  0  0  0  0  0  0  0  0  0  0  0
    9.2537    2.9251   -0.1583 H   0  0  0  0  0  0  0  0  0  0  0  0
    8.7954    0.5560   -0.7058 H   0  0  0  0  0  0  0  0  0  0  0  0
    6.5534   -0.3937   -0.3451 H   0  0  0  0  0  0  0  0  0  0  0  0
    3.6008    1.5931    0.7458 H   0  0  0  0  0  0  0  0  0  0  0  0
    5.5624   -3.0102    2.6168 H   0  0  0  0  0  0  0  0  0  0  0  0
    1.3823   -4.1304    0.9034 H   0  0  0  0  0  0  0  0  0  0  0  0
   -0.3227   -2.9868   -0.4374 H   0  0  0  0  0  0  0  0  0  0  0  0
    0.0995    0.2892   -2.0227 H   0  0  0  0  0  0  0  0  0  0  0  0
   -3.9593   -1.8215   -0.9459 H   0  0  0  0  0  0  0  0  0  0  0  0
   -3.7607   -1.9966    0.8376 H   0  0  0  0  0  0  0  0  0  0  0  0
   -4.1112    0.6733   -0.6961 H   0  0  0  0  0  0  0  0  0  0  0  0
   -3.6957    0.5110    1.0463 H   0  0  0  0  0  0  0  0  0  0  0  0
   -5.4648    1.8200    1.4671 H   0  0  0  0  0  0  0  0  0  0  0  0
   -6.9221    0.8972    1.9003 H   0  0  0  0  0  0  0  0  0  0  0  0
   -6.3650    2.1696   -0.8586 H   0  0  0  0  0  0  0  0  0  0  0  0
   -7.4487    2.8152    0.4100 H   0  0  0  0  0  0  0  0  0  0  0  0
   -8.3658   -0.6830    0.4313 H   0  0  0  0  0  0  0  0  0  0  0  0
   -8.4672   -0.7443   -1.3543 H   0  0  0  0  0  0  0  0  0  0  0  0
   -6.3788   -1.7966   -0.5640 H   0  0  0  0  0  0  0  0  0  0  0  0
   -6.0416   -0.3397   -1.5697 H   0  0  0  0  0  0  0  0  0  0  0  0
    2.0771    0.5727   -0.5289 H   0  0  0  0  0  0  0  0  0  0  0  0
    5.1922    3.4171    1.1507 H   0  0  0  0  0  0  0  0  0  0  0  0
  1  2  1  0
  2  3  2  0
  3  4  1  0
  4  5  2  0
  5  6  1  0
  6  7  1  0
  7  8  1  0
  8  9  2  0
  9 10  1  0
 10 11  2  0
 11 12  1  0
 12 13  2  0
 13 14  1  0
 14 15  2  0
 15 16  1  0
 16 17  1  0
 17 18  2  0
 18 19  1  0
 19 20  1  0
 20 21  1  0
 21 22  1  0
 22 23  1  0
 23 24  1  0
 24 25  1  0
 25 26  1  0
 15 27  1  0
 27 28  2  0
  6 29  2  0
 29  2  1  0
 28  8  1  0
 28 12  1  0
 26 21  1  0
  3 30  1  0
  4 31  1  0
  5 32  1  0
  7 33  1  0
 10 34  1  0
 13 35  1  0
 14 36  1  0
 16 37  1  0
 19 38  1  0
 19 39  1  0
 20 40  1  0
 20 41  1  0
 22 42  1  0
 22 43  1  0
 23 44  1  0
 23 45  1  0
 25 46  1  0
 25 47  1  0
 26 48  1  0
 26 49  1  0
 27 50  1  0
 29 51  1  0
M  END
